<?xml version="1.0" encoding="UTF-8"?>

<!-- generated on 02/05/21 09:41:18 by Eclipse SUMO duarouter Version 1.6.0
<configuration xmlns:xsi="http://www.w3.org/2001/XMLSchema-instance" xsi:noNamespaceSchemaLocation="http://sumo.dlr.de/xsd/duarouterConfiguration.xsd">

    <input>
        <net-file value="osm_netconvert.net.xml"/>
        <route-files value="osm.passenger.trips.xml"/>
    </input>

    <output>
        <output-file value="osm.passenger.trips.xml.tmp"/>
        <write-trips value="true"/>
    </output>

    <time>
        <begin value="0"/>
        <end value="3600.0"/>
    </time>

    <report>
        <no-warnings value="true"/>
        <ignore-errors value="true"/>
        <no-step-log value="true"/>
    </report>

</configuration>
-->

<routes xmlns:xsi="http://www.w3.org/2001/XMLSchema-instance" xsi:noNamespaceSchemaLocation="http://sumo.dlr.de/xsd/routes_file.xsd">
    <vType id="veh_passenger" vClass="passenger"/>
    <trip id="veh1" type="veh_passenger" depart="1.49" departLane="best" departSpeed="max" from="157373209#0" to="156970488"/>
    <trip id="veh3" type="veh_passenger" depart="4.46" departLane="best" departSpeed="max" from="820371000#0" to="156966514"/>
    <trip id="veh4" type="veh_passenger" depart="5.94" departLane="best" departSpeed="max" from="30046784" to="-76510933#8"/>
    <trip id="veh5" type="veh_passenger" depart="7.43" departLane="best" departSpeed="max" from="156966532" to="25292712#0"/>
    <trip id="veh6" type="veh_passenger" depart="8.92" departLane="best" departSpeed="max" from="-156261422#15" to="156970488"/>
    <trip id="veh8" type="veh_passenger" depart="11.89" departLane="best" departSpeed="max" from="156966532" to="292576585#6"/>
    <trip id="veh9" type="veh_passenger" depart="13.37" departLane="best" departSpeed="max" from="749982843#0" to="-192166622#1"/>
    <trip id="veh10" type="veh_passenger" depart="14.86" departLane="best" departSpeed="max" from="210884217#0" to="156966554#1"/>
    <trip id="veh11" type="veh_passenger" depart="16.34" departLane="best" departSpeed="max" from="820371000#0" to="211040194"/>
    <trip id="veh12" type="veh_passenger" depart="17.83" departLane="best" from="-76510933#5" to="156966514"/>
    <trip id="veh13" type="veh_passenger" depart="19.32" departLane="best" departSpeed="max" from="749982843#0" to="292576585#6"/>
    <trip id="veh15" type="veh_passenger" depart="22.29" departLane="best" departSpeed="max" from="453680009#0" to="825786395#0"/>
    <trip id="veh16" type="veh_passenger" depart="23.77" departLane="best" from="25053655#0" to="25292712#0"/>
    <trip id="veh17" type="veh_passenger" depart="25.26" departLane="best" departSpeed="max" from="749982843#0" to="459492912#0"/>
    <trip id="veh18" type="veh_passenger" depart="26.75" departLane="best" departSpeed="max" from="749982843#0" to="25292712#0"/>
    <trip id="veh19" type="veh_passenger" depart="28.23" departLane="best" departSpeed="max" from="480596367" to="156261350#5"/>
    <trip id="veh20" type="veh_passenger" depart="29.72" departLane="best" departSpeed="max" from="156966532" to="157373203#2"/>
    <trip id="veh22" type="veh_passenger" depart="32.69" departLane="best" from="-865196560#0" to="157373203#2"/>
    <trip id="veh25" type="veh_passenger" depart="37.15" departLane="best" departSpeed="max" from="157373209#0" to="825786395#0"/>
    <trip id="veh28" type="veh_passenger" depart="41.60" departLane="best" departSpeed="max" from="156966517" to="25044852#3"/>
    <trip id="veh31" type="veh_passenger" depart="46.06" departLane="best" departSpeed="max" from="749982843#0" to="809900343"/>
    <trip id="veh32" type="veh_passenger" depart="47.55" departLane="best" departSpeed="max" from="156966532" to="-783785575#0"/>
    <trip id="veh33" type="veh_passenger" depart="49.03" departLane="best" departSpeed="max" from="210884217#0" to="157373203#2"/>
    <trip id="veh34" type="veh_passenger" depart="50.52" departLane="best" from="820340552#2" to="157373203#2"/>
    <trip id="veh37" type="veh_passenger" depart="54.98" departLane="best" departSpeed="max" from="157373209#0" to="156970488"/>
    <trip id="veh38" type="veh_passenger" depart="56.46" departLane="best" departSpeed="max" from="453680009#0" to="156970488"/>
    <trip id="veh39" type="veh_passenger" depart="57.95" departLane="best" departSpeed="max" from="453680009#0" to="825786395#0"/>
    <trip id="veh40" type="veh_passenger" depart="59.43" departLane="best" from="891759499#1" to="25292712#0"/>
    <trip id="veh46" type="veh_passenger" depart="68.35" departLane="best" from="824116544" to="820345542#7"/>
    <trip id="veh47" type="veh_passenger" depart="69.83" departLane="best" departSpeed="max" from="-156261422#15" to="710591525#0"/>
    <trip id="veh51" type="veh_passenger" depart="75.78" departLane="best" departSpeed="max" from="30046784" to="825786395#0"/>
    <trip id="veh53" type="veh_passenger" depart="78.75" departLane="best" departSpeed="max" from="453680009#0" to="156966554#1"/>
    <trip id="veh54" type="veh_passenger" depart="80.24" departLane="best" departSpeed="max" from="820371000#0" to="824116552#2"/>
    <trip id="veh57" type="veh_passenger" depart="84.69" departLane="best" from="482384842#1-AddedOnRampEdge" to="25292712#0"/>
    <trip id="veh58" type="veh_passenger" depart="86.18" departLane="best" from="710591530#1" to="25292712#0"/>
    <trip id="veh60" type="veh_passenger" depart="89.15" departLane="best" departSpeed="max" from="-156261422#15" to="825786395#0"/>
    <trip id="veh61" type="veh_passenger" depart="90.64" departLane="best" departSpeed="max" from="820371000#0" to="820345542#7"/>
    <trip id="veh62" type="veh_passenger" depart="92.12" departLane="best" departSpeed="max" from="210884217#0" to="156261422#15"/>
    <trip id="veh63" type="veh_passenger" depart="93.61" departLane="best" departSpeed="max" from="820371000#0" to="825786395#0"/>
    <trip id="veh66" type="veh_passenger" depart="98.07" departLane="best" from="552779154#0" to="156966529#0"/>
    <trip id="veh67" type="veh_passenger" depart="99.55" departLane="best" from="338595769#0" to="25292712#0"/>
    <trip id="veh68" type="veh_passenger" depart="101.04" departLane="best" departSpeed="max" from="157373209#0" to="824116555#2-AddedOnRampEdge"/>
    <trip id="veh70" type="veh_passenger" depart="104.01" departLane="best" departSpeed="max" from="156966517" to="157373203#2"/>
    <trip id="veh72" type="veh_passenger" depart="106.98" departLane="best" departSpeed="max" from="30046784" to="25292712#0"/>
    <trip id="veh73" type="veh_passenger" depart="108.47" departLane="best" departSpeed="max" from="153225687#0" to="156970488"/>
    <trip id="veh74" type="veh_passenger" depart="109.95" departLane="best" departSpeed="max" from="210884217#0" to="292576585#6"/>
    <trip id="veh75" type="veh_passenger" depart="111.44" departLane="best" departSpeed="max" from="156966532" to="156970488"/>
    <trip id="veh76" type="veh_passenger" depart="112.92" departLane="best" departSpeed="max" from="-76510921#1" to="459784945#4"/>
    <trip id="veh77" type="veh_passenger" depart="114.41" departLane="best" departSpeed="max" from="749982843#0" to="156261422#15"/>
    <trip id="veh79" type="veh_passenger" depart="117.38" departLane="best" departSpeed="max" from="820371000#0" to="25292712#0"/>
    <trip id="veh80" type="veh_passenger" depart="118.87" departLane="best" from="300813736#0" to="820345542#7"/>
    <trip id="veh81" type="veh_passenger" depart="120.35" departLane="best" departSpeed="max" from="749982843#0" to="156970488"/>
    <trip id="veh83" type="veh_passenger" depart="123.33" departLane="best" departSpeed="max" from="30046784" to="25047974#4"/>
    <trip id="veh85" type="veh_passenger" depart="126.30" departLane="best" from="825786415" to="156966514"/>
    <trip id="veh86" type="veh_passenger" depart="127.78" departLane="best" departSpeed="max" from="30046784" to="211040194"/>
    <trip id="veh87" type="veh_passenger" depart="129.27" departLane="best" departSpeed="max" from="749982843#0" to="156970488"/>
    <trip id="veh89" type="veh_passenger" depart="132.24" departLane="best" departSpeed="max" from="30046784" to="157373203#2"/>
    <trip id="veh90" type="veh_passenger" depart="133.73" departLane="best" departSpeed="max" from="157373209#0" to="825786395#0"/>
    <trip id="veh91" type="veh_passenger" depart="135.21" departLane="best" departSpeed="max" from="30046784" to="820345542#7"/>
    <trip id="veh92" type="veh_passenger" depart="136.70" departLane="best" departSpeed="max" from="453680009#0" to="156261422#15"/>
    <trip id="veh93" type="veh_passenger" depart="138.18" departLane="best" from="903694548#1-AddedOnRampEdge" to="820345542#7"/>
    <trip id="veh94" type="veh_passenger" depart="139.67" departLane="best" from="820373195" to="825786395#0"/>
    <trip id="veh95" type="veh_passenger" depart="141.16" departLane="best" departSpeed="max" from="749982843#0" to="156966554#1"/>
    <trip id="veh96" type="veh_passenger" depart="142.64" departLane="best" departSpeed="max" from="453680009#0" to="156970488"/>
    <trip id="veh97" type="veh_passenger" depart="144.13" departLane="best" departSpeed="max" from="30046784" to="156261422#15"/>
    <trip id="veh98" type="veh_passenger" depart="145.61" departLane="best" from="25053863" to="825786410"/>
    <trip id="veh99" type="veh_passenger" depart="147.10" departLane="best" departSpeed="max" from="157373209#0" to="820345542#7"/>
    <trip id="veh100" type="veh_passenger" depart="148.58" departLane="best" departSpeed="max" from="30046784" to="25046128"/>
    <trip id="veh101" type="veh_passenger" depart="150.07" departLane="best" departSpeed="max" from="820371000#0" to="880001329"/>
    <trip id="veh102" type="veh_passenger" depart="151.56" departLane="best" departSpeed="max" from="453680009#0" to="693832563#1"/>
    <trip id="veh103" type="veh_passenger" depart="153.04" departLane="best" departSpeed="max" from="156966517" to="157373203#2"/>
    <trip id="veh104" type="veh_passenger" depart="154.53" departLane="best" from="820373194#0" to="262385884#1"/>
    <trip id="veh106" type="veh_passenger" depart="157.50" departLane="best" from="-693832562#0" to="292576585#6"/>
    <trip id="veh107" type="veh_passenger" depart="158.99" departLane="best" departSpeed="max" from="453680009#0" to="820345542#7"/>
    <trip id="veh111" type="veh_passenger" depart="164.93" departLane="best" departSpeed="max" from="820371000#0" to="156970488"/>
    <trip id="veh112" type="veh_passenger" depart="166.41" departLane="best" departSpeed="max" from="453680009#0" to="459492913#0"/>
    <trip id="veh113" type="veh_passenger" depart="167.90" departLane="best" departSpeed="max" from="30046784" to="292576585#6"/>
    <trip id="veh114" type="veh_passenger" depart="169.39" departLane="best" departSpeed="max" from="453680009#0" to="825786395#0"/>
    <trip id="veh115" type="veh_passenger" depart="170.87" departLane="best" departSpeed="max" from="156966517" to="618739071"/>
    <trip id="veh116" type="veh_passenger" depart="172.36" departLane="best" departSpeed="max" from="157373209#0" to="25044852#3"/>
    <trip id="veh118" type="veh_passenger" depart="175.33" departLane="best" departSpeed="max" from="210884217#0" to="76510933#6"/>
    <trip id="veh120" type="veh_passenger" depart="178.30" departLane="best" from="892602759" to="890536672"/>
    <trip id="veh122" type="veh_passenger" depart="181.27" departLane="best" departSpeed="max" from="157373209#0" to="825786395#0"/>
    <trip id="veh123" type="veh_passenger" depart="182.76" departLane="best" departSpeed="max" from="820371000#0" to="825786395#0"/>
    <trip id="veh125" type="veh_passenger" depart="185.73" departLane="best" departSpeed="max" from="749982843#0" to="481971011#1"/>
    <trip id="veh128" type="veh_passenger" depart="190.19" departLane="best" departSpeed="max" from="749982843#0" to="157373203#2"/>
    <trip id="veh130" type="veh_passenger" depart="193.16" departLane="best" departSpeed="max" from="153225687#0" to="156966529#0"/>
    <trip id="veh131" type="veh_passenger" depart="194.65" departLane="best" from="-891832883#0" to="25292712#0"/>
    <trip id="veh132" type="veh_passenger" depart="196.13" departLane="best" departSpeed="max" from="157373209#0" to="292576585#6"/>
    <trip id="veh133" type="veh_passenger" depart="197.62" departLane="best" departSpeed="max" from="480596367" to="156970488"/>
    <trip id="veh135" type="veh_passenger" depart="200.59" departLane="best" departSpeed="max" from="453680009#0" to="825786395#0"/>
    <trip id="veh136" type="veh_passenger" depart="202.08" departLane="best" departSpeed="max" from="749982843#0" to="156966514"/>
    <trip id="veh137" type="veh_passenger" depart="203.56" departLane="best" departSpeed="max" from="30046784" to="157373203#2"/>
    <trip id="veh138" type="veh_passenger" depart="205.05" departLane="best" departSpeed="max" from="-156261422#15" to="809900343"/>
    <trip id="veh140" type="veh_passenger" depart="208.02" departLane="best" departSpeed="max" from="480596367" to="25292712#0"/>
    <trip id="veh141" type="veh_passenger" depart="209.50" departLane="best" departSpeed="max" from="30046784" to="-25505423#5"/>
    <trip id="veh143" type="veh_passenger" depart="212.48" departLane="best" departSpeed="max" from="820371000#0" to="25292712#0"/>
    <trip id="veh144" type="veh_passenger" depart="213.96" departLane="best" departSpeed="max" from="749982843#0" to="292576585#6"/>
    <trip id="veh145" type="veh_passenger" depart="215.45" departLane="best" departSpeed="max" from="210884217#0" to="825786395#0"/>
    <trip id="veh146" type="veh_passenger" depart="216.93" departLane="best" departSpeed="max" from="749982843#0" to="820345542#7"/>
    <trip id="veh147" type="veh_passenger" depart="218.42" departLane="best" departSpeed="max" from="820371000#0" to="156970488"/>
    <trip id="veh148" type="veh_passenger" depart="219.91" departLane="best" departSpeed="max" from="157373209#0" to="156966514"/>
    <trip id="veh149" type="veh_passenger" depart="221.39" departLane="best" departSpeed="max" from="749982843#0" to="825786395#0"/>
    <trip id="veh150" type="veh_passenger" depart="222.88" departLane="best" departSpeed="max" from="30046784" to="459492916#0"/>
    <trip id="veh151" type="veh_passenger" depart="224.36" departLane="best" departSpeed="max" from="749982843#0" to="825786395#0"/>
    <trip id="veh152" type="veh_passenger" depart="225.85" departLane="best" departSpeed="max" from="749982843#0" to="825786395#0"/>
    <trip id="veh154" type="veh_passenger" depart="228.82" departLane="best" departSpeed="max" from="210884217#0" to="825786395#0"/>
    <trip id="veh155" type="veh_passenger" depart="230.31" departLane="best" departSpeed="max" from="749982843#0" to="820345543"/>
    <trip id="veh156" type="veh_passenger" depart="231.79" departLane="best" departSpeed="max" from="749982843#0" to="157373203#2"/>
    <trip id="veh157" type="veh_passenger" depart="233.28" departLane="best" departSpeed="max" from="749982843#0" to="156966529#0"/>
    <trip id="veh158" type="veh_passenger" depart="234.76" departLane="best" from="772038321" to="820345542#7"/>
    <trip id="veh159" type="veh_passenger" depart="236.25" departLane="best" departSpeed="max" from="156966532" to="820345542#7"/>
    <trip id="veh160" type="veh_passenger" depart="237.74" departLane="best" departSpeed="max" from="30046784" to="157373203#2"/>
    <trip id="veh161" type="veh_passenger" depart="239.22" departLane="best" departSpeed="max" from="749982843#0" to="156970488"/>
    <trip id="veh162" type="veh_passenger" depart="240.71" departLane="best" departSpeed="max" from="-156261422#15" to="156970488"/>
    <trip id="veh163" type="veh_passenger" depart="242.19" departLane="best" departSpeed="max" from="210884217#0" to="820371000#3"/>
    <trip id="veh164" type="veh_passenger" depart="243.68" departLane="best" departSpeed="max" from="820371000#0" to="157373203#2"/>
    <trip id="veh167" type="veh_passenger" depart="248.14" departLane="best" departSpeed="max" from="820371000#0" to="156966529#0"/>
    <trip id="veh168" type="veh_passenger" depart="249.62" departLane="best" from="821785869#0" to="156966554#1"/>
    <trip id="veh169" type="veh_passenger" depart="251.11" departLane="best" departSpeed="max" from="820371000#0" to="157373201#0-AddedOffRampEdge"/>
    <trip id="veh171" type="veh_passenger" depart="254.08" departLane="best" departSpeed="max" from="480596367" to="157373203#2"/>
    <trip id="veh172" type="veh_passenger" depart="255.57" departLane="best" from="459492917#1" to="25292712#0"/>
    <trip id="veh173" type="veh_passenger" depart="257.05" departLane="best" departSpeed="max" from="30046784" to="25292712#0"/>
    <trip id="veh174" type="veh_passenger" depart="258.54" departLane="best" departSpeed="max" from="157373209#0" to="482384850#0"/>
    <trip id="veh175" type="veh_passenger" depart="260.02" departLane="best" departSpeed="max" from="-156261422#15" to="825786395#0"/>
    <trip id="veh176" type="veh_passenger" depart="261.51" departLane="best" departSpeed="max" from="453680009#0" to="707581805"/>
    <trip id="veh178" type="veh_passenger" depart="264.48" departLane="best" from="211040189#7" to="156261422#15"/>
    <trip id="veh180" type="veh_passenger" depart="267.45" departLane="best" departSpeed="max" from="210884217#0" to="820345542#7"/>
    <trip id="veh181" type="veh_passenger" depart="268.94" departLane="best" departSpeed="max" from="480596367" to="157373203#2"/>
    <trip id="veh182" type="veh_passenger" depart="270.42" departLane="best" departSpeed="max" from="30046784" to="157373203#2"/>
    <trip id="veh185" type="veh_passenger" depart="274.88" departLane="best" departSpeed="max" from="820371000#0" to="415179425#1"/>
    <trip id="veh186" type="veh_passenger" depart="276.37" departLane="best" from="192166621#4" to="25292712#0"/>
    <trip id="veh187" type="veh_passenger" depart="277.85" departLane="best" from="-156261361#4" to="157373203#2"/>
    <trip id="veh188" type="veh_passenger" depart="279.34" departLane="best" departSpeed="max" from="30046784" to="292576585#2"/>
    <trip id="veh190" type="veh_passenger" depart="282.31" departLane="best" from="321845932#2" to="825786395#0"/>
    <trip id="veh191" type="veh_passenger" depart="283.80" departLane="best" departSpeed="max" from="749982843#0" to="156966554#1"/>
    <trip id="veh196" type="veh_passenger" depart="291.23" departLane="best" departSpeed="max" from="156966517" to="-693832562#0"/>
    <trip id="veh197" type="veh_passenger" depart="292.71" departLane="best" departSpeed="max" from="157373209#0" to="25292712#0"/>
    <trip id="veh198" type="veh_passenger" depart="294.20" departLane="best" departSpeed="max" from="749982843#0" to="156261422#15"/>
    <trip id="veh201" type="veh_passenger" depart="298.66" departLane="best" departSpeed="max" from="453680009#0" to="156970488"/>
    <trip id="veh203" type="veh_passenger" depart="301.63" departLane="best" departSpeed="max" from="480596367" to="809900343"/>
    <trip id="veh205" type="veh_passenger" depart="304.60" departLane="best" departSpeed="max" from="453680009#0" to="156261422#15"/>
    <trip id="veh206" type="veh_passenger" depart="306.08" departLane="best" departSpeed="max" from="157373209#0" to="820345542#7"/>
    <trip id="veh207" type="veh_passenger" depart="307.57" departLane="best" departSpeed="max" from="30046784" to="820345542#7"/>
    <trip id="veh209" type="veh_passenger" depart="310.54" departLane="best" departSpeed="max" from="453680009#0" to="825786395#0"/>
    <trip id="veh210" type="veh_passenger" depart="312.03" departLane="best" departSpeed="max" from="820371000#0" to="353583728#0"/>
    <trip id="veh211" type="veh_passenger" depart="313.51" departLane="best" departSpeed="max" from="480596367" to="25292712#0"/>
    <trip id="veh212" type="veh_passenger" depart="315.00" departLane="best" departSpeed="max" from="749982843#0" to="25292712#0"/>
    <trip id="veh214" type="veh_passenger" depart="317.97" departLane="best" from="328942767#3" to="156970488"/>
    <trip id="veh216" type="veh_passenger" depart="320.94" departLane="best" from="552779154#0" to="25292712#0"/>
    <trip id="veh219" type="veh_passenger" depart="325.40" departLane="best" departSpeed="max" from="157373209#0" to="170065517#0"/>
    <trip id="veh220" type="veh_passenger" depart="326.89" departLane="best" departSpeed="max" from="453680009#0" to="156966554#1"/>
    <trip id="veh222" type="veh_passenger" depart="329.86" departLane="best" departSpeed="max" from="480596367" to="156261422#15"/>
    <trip id="veh223" type="veh_passenger" depart="331.34" departLane="best" departSpeed="max" from="30046784" to="25292712#0"/>
    <trip id="veh224" type="veh_passenger" depart="332.83" departLane="best" departSpeed="max" from="30046784" to="825786395#0"/>
    <trip id="veh226" type="veh_passenger" depart="335.80" departLane="best" departSpeed="max" from="749982843#0" to="809900343"/>
    <trip id="veh227" type="veh_passenger" depart="337.29" departLane="best" from="262385884#0" to="-192166617#1"/>
    <trip id="veh228" type="veh_passenger" depart="338.77" departLane="best" departSpeed="max" from="210884217#0" to="783785002#3"/>
    <trip id="veh229" type="veh_passenger" depart="340.26" departLane="best" departSpeed="max" from="749982843#0" to="825786395#0"/>
    <trip id="veh231" type="veh_passenger" depart="343.23" departLane="best" departSpeed="max" from="453680009#0" to="292576585#6"/>
    <trip id="veh232" type="veh_passenger" depart="344.72" departLane="best" departSpeed="max" from="156966532" to="156970488"/>
    <trip id="veh233" type="veh_passenger" depart="346.20" departLane="best" departSpeed="max" from="30046784" to="-761650946#1"/>
    <trip id="veh235" type="veh_passenger" depart="349.17" departLane="best" departSpeed="max" from="30046784" to="156966554#1"/>
    <trip id="veh236" type="veh_passenger" depart="350.66" departLane="best" departSpeed="max" from="30046784" to="156966529#0"/>
    <trip id="veh238" type="veh_passenger" depart="353.63" departLane="best" departSpeed="max" from="30046784" to="25292712#0"/>
    <trip id="veh241" type="veh_passenger" depart="358.09" departLane="best" from="-525504894#0" to="25044852#3"/>
    <trip id="veh242" type="veh_passenger" depart="359.57" departLane="best" departSpeed="max" from="156966532" to="211040194"/>
    <trip id="veh243" type="veh_passenger" depart="361.06" departLane="best" from="482209831#2" to="25044852#3"/>
    <trip id="veh244" type="veh_passenger" depart="362.55" departLane="best" departSpeed="max" from="480596367" to="820345542#7"/>
    <trip id="veh245" type="veh_passenger" depart="364.03" departLane="best" departSpeed="max" from="157373209#0" to="156966514"/>
    <trip id="veh246" type="veh_passenger" depart="365.52" departLane="best" departSpeed="max" from="-156261422#15" to="25292712#0"/>
    <trip id="veh247" type="veh_passenger" depart="367.00" departLane="best" from="9168676" to="211040194"/>
    <trip id="veh250" type="veh_passenger" depart="371.46" departLane="best" departSpeed="max" from="820371000#0" to="156970488"/>
    <trip id="veh251" type="veh_passenger" depart="372.95" departLane="best" departSpeed="max" from="-156261422#15" to="156966554#1"/>
    <trip id="veh253" type="veh_passenger" depart="375.92" departLane="best" departSpeed="max" from="453680009#0" to="156970488"/>
    <trip id="veh254" type="veh_passenger" depart="377.41" departLane="best" departSpeed="max" from="480596367" to="809900343"/>
    <trip id="veh255" type="veh_passenger" depart="378.89" departLane="best" departSpeed="max" from="156966517" to="294808467#2"/>
    <trip id="veh256" type="veh_passenger" depart="380.38" departLane="best" departSpeed="max" from="749982843#0" to="825786395#0"/>
    <trip id="veh257" type="veh_passenger" depart="381.86" departLane="best" from="153225678#1" to="-693832673#3"/>
    <trip id="veh259" type="veh_passenger" depart="384.83" departLane="best" departSpeed="max" from="820371000#0" to="25044852#3"/>
    <trip id="veh260" type="veh_passenger" depart="386.32" departLane="best" departSpeed="max" from="480596367" to="156261499"/>
    <trip id="veh261" type="veh_passenger" depart="387.81" departLane="best" departSpeed="max" from="459784945#0" to="459784945#4"/>
    <trip id="veh262" type="veh_passenger" depart="389.29" departLane="best" from="-865229405" to="809900343"/>
    <trip id="veh263" type="veh_passenger" depart="390.78" departLane="best" departSpeed="max" from="749982843#0" to="292576585#6"/>
    <trip id="veh264" type="veh_passenger" depart="392.26" departLane="best" departSpeed="max" from="153225687#0" to="825786399#1"/>
    <trip id="veh265" type="veh_passenger" depart="393.75" departLane="best" departSpeed="max" from="749982843#0" to="211040194"/>
    <trip id="veh266" type="veh_passenger" depart="395.24" departLane="best" departSpeed="max" from="30046784" to="25044852#3"/>
    <trip id="veh267" type="veh_passenger" depart="396.72" departLane="best" departSpeed="max" from="453680009#0" to="211040194"/>
    <trip id="veh268" type="veh_passenger" depart="398.21" departLane="best" departSpeed="max" from="749982843#0" to="820345542#7"/>
    <trip id="veh269" type="veh_passenger" depart="399.69" departLane="best" from="-891758897#1" to="825786395#0"/>
    <trip id="veh271" type="veh_passenger" depart="402.66" departLane="best" departSpeed="max" from="157373209#0" to="820345542#7"/>
    <trip id="veh273" type="veh_passenger" depart="405.64" departLane="best" departSpeed="max" from="157373209#0" to="820345542#7"/>
    <trip id="veh274" type="veh_passenger" depart="407.12" departLane="best" departSpeed="max" from="749982843#0" to="156966514"/>
    <trip id="veh275" type="veh_passenger" depart="408.61" departLane="best" departSpeed="max" from="820371000#0" to="156970488"/>
    <trip id="veh276" type="veh_passenger" depart="410.09" departLane="best" departSpeed="max" from="30046784" to="338595767"/>
    <trip id="veh277" type="veh_passenger" depart="411.58" departLane="best" from="25053863" to="-710591542"/>
    <trip id="veh278" type="veh_passenger" depart="413.07" departLane="best" departSpeed="max" from="749982843#0" to="156966554#1"/>
    <trip id="veh279" type="veh_passenger" depart="414.55" departLane="best" departSpeed="max" from="156966532" to="820345542#7"/>
    <trip id="veh280" type="veh_passenger" depart="416.04" departLane="best" departSpeed="max" from="210884217#0" to="825786395#0"/>
    <trip id="veh281" type="veh_passenger" depart="417.52" departLane="best" departSpeed="max" from="480596367" to="157373203#2"/>
    <trip id="veh282" type="veh_passenger" depart="419.01" departLane="best" departSpeed="max" from="-156261422#15" to="825786395#0"/>
    <trip id="veh284" type="veh_passenger" depart="421.98" departLane="best" departSpeed="max" from="453680009#0" to="809900343"/>
    <trip id="veh285" type="veh_passenger" depart="423.47" departLane="best" departSpeed="max" from="459784945#0" to="459784945#4"/>
    <trip id="veh286" type="veh_passenger" depart="424.95" departLane="best" departSpeed="max" from="453680009#0" to="820345542#7"/>
    <trip id="veh287" type="veh_passenger" depart="426.44" departLane="best" from="-76510933#9" to="156970488"/>
    <trip id="veh290" type="veh_passenger" depart="430.90" departLane="best" departSpeed="max" from="480596367" to="211040194"/>
    <trip id="veh291" type="veh_passenger" depart="432.38" departLane="best" departSpeed="max" from="480596367" to="157373203#2"/>
    <trip id="veh292" type="veh_passenger" depart="433.87" departLane="best" departSpeed="max" from="157373209#0" to="156966529#0"/>
    <trip id="veh293" type="veh_passenger" depart="435.35" departLane="best" departSpeed="max" from="453680009#0" to="809900343"/>
    <trip id="veh294" type="veh_passenger" depart="436.84" departLane="best" departSpeed="max" from="156966517" to="156970488"/>
    <trip id="veh296" type="veh_passenger" depart="439.81" departLane="best" from="824116555#5" to="25292712#0"/>
    <trip id="veh297" type="veh_passenger" depart="441.30" departLane="best" departSpeed="max" from="157373209#0" to="156966514"/>
    <trip id="veh298" type="veh_passenger" depart="442.78" departLane="best" departSpeed="max" from="156966517" to="156970488"/>
    <trip id="veh299" type="veh_passenger" depart="444.27" departLane="best" departSpeed="max" from="156966517" to="-384633624#0"/>
    <trip id="veh300" type="veh_passenger" depart="445.75" departLane="best" departSpeed="max" from="453680009#0" to="157373203#2"/>
    <trip id="veh301" type="veh_passenger" depart="447.24" departLane="best" from="824116552#1" to="25292712#0"/>
    <trip id="veh302" type="veh_passenger" depart="448.73" departLane="best" from="464252889" to="156966529#0"/>
    <trip id="veh303" type="veh_passenger" depart="450.21" departLane="best" departSpeed="max" from="749982843#0" to="25292712#0"/>
    <trip id="veh304" type="veh_passenger" depart="451.70" departLane="best" from="783785001#5" to="25292712#0"/>
    <trip id="veh305" type="veh_passenger" depart="453.18" departLane="best" departSpeed="max" from="30046784" to="25046128"/>
    <trip id="veh306" type="veh_passenger" depart="454.67" departLane="best" departSpeed="max" from="156966517" to="156261422#15"/>
    <trip id="veh307" type="veh_passenger" depart="456.16" departLane="best" departSpeed="max" from="820371000#0" to="25292712#0"/>
    <trip id="veh308" type="veh_passenger" depart="457.64" departLane="best" departSpeed="max" from="749982843#0" to="25044852#3"/>
    <trip id="veh309" type="veh_passenger" depart="459.13" departLane="best" departSpeed="max" from="-76510921#1" to="459784945#4"/>