<?xml version="1.0" encoding="UTF-8"?>

<!-- generated on 02/05/21 09:37:47 by Eclipse SUMO netconvert Version 1.6.0
<configuration xmlns:xsi="http://www.w3.org/2001/XMLSchema-instance" xsi:noNamespaceSchemaLocation="http://sumo.dlr.de/xsd/netconvertConfiguration.xsd">

    <input>
        <type-files value="C:\Program%20Files%20(x86)\DLR\sumo-1.6.0\data\typemap\osmNetconvert.typ.xml"/>
        <osm-files value="osm_bbox.osm.xml"/>
    </input>

    <output>
        <output-file value="osm.net.xml"/>
        <output.street-names value="true"/>
        <output.original-names value="true"/>
    </output>

    <projection>
        <proj.utm value="true"/>
    </projection>

    <processing>
        <geometry.remove value="true"/>
        <roundabouts.guess value="true"/>
        <lefthand value="true"/>
    </processing>

    <tls_building>
        <tls.discard-simple value="true"/>
        <tls.join value="true"/>
        <tls.guess-signals value="true"/>
        <tls.default-type value="actuated"/>
    </tls_building>

    <ramp_guessing>
        <ramps.guess value="true"/>
    </ramp_guessing>

    <edge_removal>
        <keep-edges.by-vclass value="passenger"/>
    </edge_removal>

    <junctions>
        <junctions.join value="true"/>
        <junctions.corner-detail value="5"/>
    </junctions>

    <report>
        <verbose value="true"/>
        <aggregate-warnings value="5"/>
    </report>

</configuration>
-->

<net version="1.6" junctionCornerDetail="5" lefthand="true" limitTurnSpeed="5.50" xmlns:xsi="http://www.w3.org/2001/XMLSchema-instance" xsi:noNamespaceSchemaLocation="http://sumo.dlr.de/xsd/net_file.xsd">

    <location netOffset="-665445.43,-1514381.00" convBoundary="0.00,-0.00,6550.42,4484.91" origBoundary="100.517160,13.693759,100.597490,13.813737" projParameter="+proj=utm +zone=47 +ellps=WGS84 +datum=WGS84 +units=m +no_defs"/>

    <type id="highway.bridleway" priority="1" numLanes="1" speed="2.78" allow="pedestrian" oneway="1" width="2.00"/>
    <type id="highway.bus_guideway" priority="1" numLanes="1" speed="27.78" allow="bus" oneway="1"/>
    <type id="highway.cycleway" priority="1" numLanes="1" speed="8.33" allow="bicycle" oneway="0" width="1.00"/>
    <type id="highway.footway" priority="1" numLanes="1" speed="2.78" allow="pedestrian" oneway="1" width="2.00"/>
    <type id="highway.ford" priority="1" numLanes="1" speed="2.78" allow="army" oneway="0"/>
    <type id="highway.living_street" priority="2" numLanes="1" speed="2.78" disallow="tram rail_urban rail rail_electric rail_fast ship" oneway="0"/>
    <type id="highway.motorway" priority="14" numLanes="2" speed="39.44" allow="private emergency authority army vip passenger hov taxi bus coach delivery truck trailer motorcycle evehicle custom1 custom2" oneway="1"/>
    <type id="highway.motorway_link" priority="9" numLanes="1" speed="22.22" allow="private emergency authority army vip passenger hov taxi bus coach delivery truck trailer motorcycle evehicle custom1 custom2" oneway="1"/>
    <type id="highway.path" priority="1" numLanes="1" speed="2.78" allow="pedestrian bicycle" oneway="1" width="2.00"/>
    <type id="highway.pedestrian" priority="1" numLanes="1" speed="2.78" allow="pedestrian" oneway="1" width="2.00"/>
    <type id="highway.primary" priority="12" numLanes="2" speed="27.78" disallow="tram rail_urban rail rail_electric rail_fast ship" oneway="0"/>
    <type id="highway.primary_link" priority="7" numLanes="1" speed="22.22" disallow="tram rail_urban rail rail_electric rail_fast ship" oneway="0"/>
    <type id="highway.raceway" priority="15" numLanes="2" speed="83.33" allow="vip" oneway="0"/>
    <type id="highway.residential" priority="3" numLanes="1" speed="13.89" disallow="tram rail_urban rail rail_electric rail_fast ship" oneway="0"/>
    <type id="highway.secondary" priority="11" numLanes="1" speed="27.78" disallow="tram rail_urban rail rail_electric rail_fast ship" oneway="0"/>
    <type id="highway.secondary_link" priority="6" numLanes="1" speed="22.22" disallow="tram rail_urban rail rail_electric rail_fast ship" oneway="0"/>
    <type id="highway.service" priority="1" numLanes="1" speed="5.56" allow="pedestrian delivery bicycle" oneway="0"/>
    <type id="highway.stairs" priority="1" numLanes="1" speed="1.39" allow="pedestrian" oneway="1" width="2.00"/>
    <type id="highway.step" priority="1" numLanes="1" speed="1.39" allow="pedestrian" oneway="1" width="2.00"/>
    <type id="highway.steps" priority="1" numLanes="1" speed="1.39" allow="pedestrian" oneway="1" width="2.00"/>
    <type id="highway.tertiary" priority="10" numLanes="1" speed="22.22" disallow="tram rail_urban rail rail_electric rail_fast ship" oneway="0"/>
    <type id="highway.tertiary_link" priority="5" numLanes="1" speed="22.22" disallow="tram rail_urban rail rail_electric rail_fast ship" oneway="0"/>
    <type id="highway.track" priority="1" numLanes="1" speed="5.56" disallow="tram rail_urban rail rail_electric rail_fast ship" oneway="0"/>
    <type id="highway.trunk" priority="13" numLanes="2" speed="27.78" disallow="pedestrian bicycle tram rail_urban rail rail_electric rail_fast ship" oneway="0"/>
    <type id="highway.trunk_link" priority="8" numLanes="1" speed="22.22" disallow="pedestrian bicycle tram rail_urban rail rail_electric rail_fast ship" oneway="0"/>
    <type id="highway.unclassified" priority="4" numLanes="1" speed="13.89" disallow="tram rail_urban rail rail_electric rail_fast ship" oneway="0"/>
    <type id="highway.unsurfaced" priority="1" numLanes="1" speed="8.33" disallow="tram rail_urban rail rail_electric rail_fast ship" oneway="0"/>
    <type id="railway.highspeed" priority="21" numLanes="1" speed="69.44" allow="rail_fast" oneway="1"/>
    <type id="railway.light_rail" priority="19" numLanes="1" speed="27.78" allow="rail_urban" oneway="1"/>
    <type id="railway.preserved" priority="16" numLanes="1" speed="27.78" allow="rail" oneway="1"/>
    <type id="railway.rail" priority="20" numLanes="1" speed="44.44" allow="rail" oneway="1"/>
    <type id="railway.subway" priority="18" numLanes="1" speed="27.78" allow="rail_urban" oneway="1"/>
    <type id="railway.tram" priority="17" numLanes="1" speed="13.89" allow="tram" oneway="1"/>

    <edge id=":153225678#1-AddedOnRampNode_0" function="internal">
        <lane id=":153225678#1-AddedOnRampNode_0_0" index="0" disallow="tram rail_urban rail rail_electric rail_fast ship" speed="27.78" length="8.00" shape="3263.15,2906.92 3270.54,2903.86"/>
        <lane id=":153225678#1-AddedOnRampNode_0_1" index="1" disallow="tram rail_urban rail rail_electric rail_fast ship" speed="27.78" length="8.00" shape="3261.93,2903.96 3269.32,2900.90"/>
        <lane id=":153225678#1-AddedOnRampNode_0_2" index="2" disallow="tram rail_urban rail rail_electric rail_fast ship" speed="27.78" length="8.00" shape="3260.70,2901.01 3268.09,2897.94"/>
        <lane id=":153225678#1-AddedOnRampNode_0_3" index="3" disallow="tram rail_urban rail rail_electric rail_fast ship" speed="27.78" length="8.00" shape="3259.48,2898.05 3266.87,2894.99"/>
    </edge>
    <edge id=":153225687#8-AddedOffRampNode_0" function="internal">
        <lane id=":153225687#8-AddedOffRampNode_0_0" index="0" disallow="tram rail_urban rail rail_electric rail_fast ship" speed="27.78" length="8.41" shape="3745.01,2211.13 3745.55,2213.59 3745.16,2215.44 3744.76,2217.29 3745.27,2219.76"/>
        <lane id=":153225687#8-AddedOffRampNode_0_1" index="1" disallow="tram rail_urban rail rail_electric rail_fast ship" speed="27.78" length="8.41" shape="3745.01,2211.13 3748.20,2218.47"/>
    </edge>
    <edge id=":156970499-AddedOffRampNode_0" function="internal">
        <lane id=":156970499-AddedOffRampNode_0_0" index="0" allow="private emergency authority army vip passenger hov taxi bus coach delivery truck trailer motorcycle evehicle custom1 custom2" speed="39.44" length="5.69" shape="2567.72,2171.54 2566.12,2179.21"/>
        <lane id=":156970499-AddedOffRampNode_0_1" index="1" allow="private emergency authority army vip passenger hov taxi bus coach delivery truck trailer motorcycle evehicle custom1 custom2" speed="39.44" length="5.69" shape="2567.72,2171.54 2568.37,2172.97 2568.09,2174.29 2567.82,2175.61 2568.46,2177.04"/>
        <lane id=":156970499-AddedOffRampNode_0_2" index="2" allow="private emergency authority army vip passenger hov taxi bus coach delivery truck trailer motorcycle evehicle custom1 custom2" speed="39.44" length="5.69" shape="2567.72,2171.54 2570.81,2174.86"/>
        <lane id=":156970499-AddedOffRampNode_0_3" index="3" allow="private emergency authority army vip passenger hov taxi bus coach delivery truck trailer motorcycle evehicle custom1 custom2" speed="39.44" length="5.69" shape="2570.07,2169.36 2573.15,2172.69"/>
    </edge>
    <edge id=":157373201#0-AddedOffRampNode_0" function="internal">
        <lane id=":157373201#0-AddedOffRampNode_0_0" index="0" disallow="tram rail_urban rail rail_electric rail_fast ship" speed="27.78" length="8.27" shape="2729.74,2289.16 2728.36,2287.06 2728.06,2285.19 2727.76,2283.33 2726.39,2281.23"/>
        <lane id=":157373201#0-AddedOffRampNode_0_1" index="1" disallow="tram rail_urban rail rail_electric rail_fast ship" speed="27.78" length="8.27" shape="2729.74,2289.16 2724.11,2283.48"/>
        <lane id=":157373201#0-AddedOffRampNode_0_2" index="2" disallow="tram rail_urban rail rail_electric rail_fast ship" speed="27.78" length="8.27" shape="2727.47,2291.41 2721.84,2285.73"/>
    </edge>
    <edge id=":1671131657_0" function="internal">
        <lane id=":1671131657_0_0" index="0" disallow="tram rail_urban rail rail_electric rail_fast ship" speed="3.65" length="4.67" shape="2528.67,2151.36 2529.94,2150.70 2530.43,2149.94 2530.12,2149.11 2529.01,2148.18"/>
    </edge>
    <edge id=":1685223051_0" function="internal">
        <lane id=":1685223051_0_0" index="0" disallow="tram rail_urban rail rail_electric rail_fast ship" speed="3.65" length="4.67" shape="3664.26,3533.57 3663.35,3532.45 3662.51,3532.13 3661.76,3532.61 3661.08,3533.88"/>
    </edge>
    <edge id=":1686126946_0" function="internal">
        <lane id=":1686126946_0_0" index="0" disallow="tram rail_urban rail rail_electric rail_fast ship" speed="3.65" length="4.67" shape="6242.21,2335.26 6243.40,2334.45 6243.79,2333.65 6243.38,2332.85 6242.17,2332.06"/>
    </edge>
    <edge id=":1686126957_0" function="internal">
        <lane id=":1686126957_0_0" index="0" disallow="tram rail_urban rail rail_electric rail_fast ship" speed="9.64" length="12.52" shape="5019.95,3580.53 5019.98,3576.55 5020.59,3573.30 5021.76,3570.81 5023.52,3569.07"/>
    </edge>
    <edge id=":1686126957_1" function="internal">
        <lane id=":1686126957_1_0" index="0" disallow="tram rail_urban rail rail_electric rail_fast ship" speed="5.65" length="9.26" shape="5010.72,3577.76 5013.21,3576.50 5015.05,3576.58 5016.23,3577.98 5016.76,3580.72"/>
    </edge>
    <edge id=":1686126957_2" function="internal">
        <lane id=":1686126957_2_0" index="0" disallow="tram rail_urban rail rail_electric rail_fast ship" speed="27.78" length="15.49" shape="5010.72,3577.76 5023.52,3569.07"/>
        <lane id=":1686126957_2_1" index="1" disallow="tram rail_urban rail rail_electric rail_fast ship" speed="27.78" length="15.49" shape="5008.91,3575.11 5021.73,3566.41"/>
        <lane id=":1686126957_2_2" index="2" disallow="tram rail_urban rail rail_electric rail_fast ship" speed="27.78" length="15.49" shape="5007.11,3572.47 5019.95,3563.75"/>
    </edge>
    <edge id=":1686126961_0" function="internal">
        <lane id=":1686126961_0_0" index="0" disallow="tram rail_urban rail rail_electric rail_fast ship" speed="3.65" length="4.67" shape="5019.93,3634.37 5020.80,3635.52 5021.62,3635.88 5022.39,3635.43 5023.12,3634.19"/>
    </edge>
    <edge id=":1687148388_0" function="internal">
        <lane id=":1687148388_0_0" index="0" disallow="tram rail_urban rail rail_electric rail_fast ship" speed="3.65" length="4.67" shape="2535.45,1780.71 2534.31,1781.59 2533.96,1782.41 2534.42,1783.18 2535.67,1783.90"/>
    </edge>
    <edge id=":1687148454_0" function="internal">
        <lane id=":1687148454_0_0" index="0" disallow="tram rail_urban rail rail_electric rail_fast ship" speed="22.22" length="14.92" shape="2604.61,1913.44 2604.91,1909.72 2605.12,1906.00 2605.25,1902.28 2605.29,1898.55"/>
    </edge>
    <edge id=":1687148454_1" function="internal">
        <lane id=":1687148454_1_0" index="0" disallow="tram rail_urban rail rail_electric rail_fast ship" speed="7.69" length="6.20" shape="2604.61,1913.44 2604.38,1909.22 2603.44,1907.49"/>
    </edge>
    <edge id=":1687148454_2" function="internal">
        <lane id=":1687148454_2_0" index="0" disallow="tram rail_urban rail rail_electric rail_fast ship" speed="3.65" length="2.34" shape="2604.61,1913.44 2603.92,1912.18 2603.16,1911.71"/>
    </edge>
    <edge id=":1687148454_9" function="internal">
        <lane id=":1687148454_9_0" index="0" disallow="tram rail_urban rail rail_electric rail_fast ship" speed="7.69" length="8.80" shape="2603.44,1907.49 2602.81,1906.35 2599.91,1904.84 2595.68,1904.70"/>
    </edge>
    <edge id=":1687148454_10" function="internal">
        <lane id=":1687148454_10_0" index="0" disallow="tram rail_urban rail rail_electric rail_fast ship" speed="3.65" length="2.34" shape="2603.16,1911.71 2602.33,1912.04 2601.43,1913.16"/>
    </edge>
    <edge id=":1687148454_3" function="internal">
        <lane id=":1687148454_3_0" index="0" disallow="tram rail_urban rail rail_electric rail_fast ship" speed="6.12" length="9.06" shape="2596.03,1907.88 2598.59,1907.97 2600.34,1908.88 2601.28,1910.61 2601.43,1913.16"/>
    </edge>
    <edge id=":1687148454_4" function="internal">
        <lane id=":1687148454_4_0" index="0" disallow="tram rail_urban rail rail_electric rail_fast ship" speed="8.45" length="14.65" shape="2596.03,1907.88 2600.09,1906.92 2602.99,1905.04 2604.72,1902.25 2605.29,1898.55"/>
    </edge>
    <edge id=":1687148454_5" function="internal">
        <lane id=":1687148454_5_0" index="0" disallow="tram rail_urban rail rail_electric rail_fast ship" speed="3.65" length="4.67" shape="2596.03,1907.88 2597.14,1906.96 2597.45,1906.12 2596.96,1905.36 2595.68,1904.70"/>
    </edge>
    <edge id=":1687148454_6" function="internal">
        <lane id=":1687148454_6_0" index="0" disallow="tram rail_urban rail rail_electric rail_fast ship" speed="7.04" length="9.88" shape="2602.09,1898.56 2601.69,1900.98 2600.50,1902.81 2598.49,1904.05 2595.68,1904.70"/>
    </edge>
    <edge id=":1687148454_7" function="internal">
        <lane id=":1687148454_7_0" index="0" disallow="tram rail_urban rail rail_electric rail_fast ship" speed="22.22" length="14.62" shape="2602.09,1898.56 2602.05,1902.25 2601.93,1905.87 2601.72,1909.48 2601.43,1913.16"/>
    </edge>
    <edge id=":1687148454_8" function="internal">
        <lane id=":1687148454_8_0" index="0" disallow="tram rail_urban rail rail_electric rail_fast ship" speed="3.65" length="2.34" shape="2602.09,1898.56 2602.89,1899.76 2603.69,1900.15"/>
    </edge>
    <edge id=":1687148454_11" function="internal">
        <lane id=":1687148454_11_0" index="0" disallow="tram rail_urban rail rail_electric rail_fast ship" speed="3.65" length="2.34" shape="2603.69,1900.15 2604.49,1899.75 2605.29,1898.55"/>
    </edge>
    <edge id=":1687148470_0" function="internal">
        <lane id=":1687148470_0_0" index="0" disallow="tram rail_urban rail rail_electric rail_fast ship" speed="3.65" length="4.67" shape="2527.40,1941.88 2527.75,1943.28 2528.38,1943.92 2529.26,1943.81 2530.42,1942.94"/>
    </edge>
    <edge id=":1692045489_0" function="internal">
        <lane id=":1692045489_0_0" index="0" disallow="tram rail_urban rail rail_electric rail_fast ship" speed="3.65" length="4.67" shape="2453.16,2876.92 2451.83,2877.48 2451.29,2878.19 2451.54,2879.05 2452.57,2880.06"/>
    </edge>
    <edge id=":1692045559_0" function="internal">
        <lane id=":1692045559_0_0" index="0" allow="private emergency authority army vip passenger hov taxi bus coach delivery truck trailer motorcycle evehicle custom1 custom2" speed="25.00" length="8.69" shape="2489.80,3197.03 2481.88,3200.62"/>
    </edge>
    <edge id=":1692045559_1" function="internal">
        <lane id=":1692045559_1_0" index="0" disallow="tram rail_urban rail rail_electric rail_fast ship" speed="27.78" length="8.50" shape="2491.03,3199.98 2488.55,3200.74 2486.75,3200.90 2484.95,3201.07 2482.49,3201.85"/>
        <lane id=":1692045559_1_1" index="1" disallow="tram rail_urban rail rail_electric rail_fast ship" speed="27.78" length="8.50" shape="2492.26,3202.94 2489.84,3203.67 2488.07,3203.82 2486.30,3203.97 2483.89,3204.73"/>
        <lane id=":1692045559_1_2" index="2" disallow="tram rail_urban rail rail_electric rail_fast ship" speed="27.78" length="8.50" shape="2493.49,3205.89 2491.12,3206.61 2489.39,3206.74 2487.66,3206.87 2485.30,3207.61"/>
        <lane id=":1692045559_1_3" index="3" disallow="tram rail_urban rail rail_electric rail_fast ship" speed="27.78" length="8.50" shape="2494.72,3208.85 2492.40,3209.54 2490.71,3209.65 2489.02,3209.77 2486.71,3210.48"/>
    </edge>
    <edge id=":1692045616_0" function="internal">
        <lane id=":1692045616_0_0" index="0" allow="private emergency authority army vip passenger hov taxi bus coach delivery truck trailer motorcycle evehicle custom1 custom2" speed="30.83" length="10.20" shape="2512.62,2760.48 2510.80,2762.91 2509.64,2764.66 2508.64,2766.48 2507.29,2769.15"/>
    </edge>
    <edge id=":1692045616_1" function="internal">
        <lane id=":1692045616_1_0" index="0" allow="private emergency authority army vip passenger hov taxi bus coach delivery truck trailer motorcycle evehicle custom1 custom2" speed="39.44" length="9.43" shape="2515.16,2762.43 2513.48,2764.66 2512.44,2766.27 2511.62,2768.01 2510.62,2770.62"/>
    </edge>
    <edge id=":1692045616_2" function="internal">
        <lane id=":1692045616_2_0" index="0" allow="private emergency authority army vip passenger hov taxi bus coach delivery truck trailer motorcycle evehicle custom1 custom2" speed="37.69" length="8.48" shape="2517.70,2764.37 2516.19,2766.38 2515.25,2767.83 2514.52,2769.40 2513.62,2771.74"/>
    </edge>
    <edge id=":1692045660_0" function="internal">
        <lane id=":1692045660_0_0" index="0" allow="private emergency authority army vip passenger hov taxi bus coach delivery truck trailer motorcycle evehicle custom1 custom2" speed="39.44" length="4.88" shape="2565.64,2167.04 2566.41,2168.20 2566.62,2169.20 2566.83,2170.22 2567.59,2171.39"/>
        <lane id=":1692045660_0_1" index="1" allow="private emergency authority army vip passenger hov taxi bus coach delivery truck trailer motorcycle evehicle custom1 custom2" speed="39.44" length="4.88" shape="2567.94,2164.82 2568.73,2165.99 2568.95,2167.01 2569.17,2168.03 2569.93,2169.21"/>
    </edge>
    <edge id=":1692045701_0" function="internal">
        <lane id=":1692045701_0_0" index="0" disallow="tram rail_urban rail rail_electric rail_fast ship" speed="6.63" length="9.26" shape="2491.39,2884.06 2489.05,2883.27 2487.50,2881.88 2486.76,2879.89 2486.81,2877.31"/>
    </edge>
    <edge id=":1692045701_1" function="internal">
        <lane id=":1692045701_1_0" index="0" disallow="tram rail_urban rail rail_electric rail_fast ship" speed="22.22" length="15.36" shape="2491.39,2884.06 2476.28,2881.28"/>
    </edge>
    <edge id=":1692045701_2" function="internal">
        <lane id=":1692045701_2_0" index="0" disallow="tram rail_urban rail rail_electric rail_fast ship" speed="3.65" length="2.34" shape="2491.39,2884.06 2490.06,2884.64 2489.53,2885.35"/>
    </edge>
    <edge id=":1692045701_9" function="internal">
        <lane id=":1692045701_9_0" index="0" disallow="tram rail_urban rail rail_electric rail_fast ship" speed="3.65" length="2.34" shape="2489.53,2885.35 2489.78,2886.21 2490.82,2887.21"/>
    </edge>
    <edge id=":1692045701_3" function="internal">
        <lane id=":1692045701_3_0" index="0" disallow="tram rail_urban rail rail_electric rail_fast ship" speed="22.22" length="15.38" shape="2475.69,2884.42 2490.82,2887.21"/>
    </edge>
    <edge id=":1692045701_4" function="internal">
        <lane id=":1692045701_4_0" index="0" disallow="tram rail_urban rail rail_electric rail_fast ship" speed="8.16" length="6.52" shape="2475.69,2884.42 2480.03,2884.66 2482.09,2883.97"/>
    </edge>
    <edge id=":1692045701_5" function="internal">
        <lane id=":1692045701_5_0" index="0" disallow="tram rail_urban rail rail_electric rail_fast ship" speed="3.65" length="2.34" shape="2475.69,2884.42 2477.02,2883.86 2477.56,2883.14"/>
    </edge>
    <edge id=":1692045701_10" function="internal">
        <lane id=":1692045701_10_0" index="0" disallow="tram rail_urban rail rail_electric rail_fast ship" speed="8.16" length="8.63" shape="2482.09,2883.97 2483.33,2883.56 2485.59,2881.11 2486.81,2877.31"/>
    </edge>
    <edge id=":1692045701_11" function="internal">
        <lane id=":1692045701_11_0" index="0" disallow="tram rail_urban rail rail_electric rail_fast ship" speed="3.65" length="2.34" shape="2477.56,2883.14 2477.31,2882.28 2476.28,2881.28"/>
    </edge>
    <edge id=":1692045701_6" function="internal">
        <lane id=":1692045701_6_0" index="0" disallow="tram rail_urban rail rail_electric rail_fast ship" speed="5.91" length="8.82" shape="2481.76,2876.67 2481.62,2879.11 2480.66,2880.69 2478.88,2881.41 2476.28,2881.28"/>
    </edge>
    <edge id=":1692045701_7" function="internal">
        <lane id=":1692045701_7_0" index="0" disallow="tram rail_urban rail rail_electric rail_fast ship" speed="9.18" length="15.07" shape="2481.76,2876.67 2482.65,2880.73 2484.46,2883.84 2487.18,2886.00 2490.82,2887.21"/>
    </edge>
    <edge id=":1692045701_8" function="internal">
        <lane id=":1692045701_8_0" index="0" disallow="tram rail_urban rail rail_electric rail_fast ship" speed="4.46" length="7.43" shape="2481.76,2876.67 2482.78,2878.72 2483.96,2879.51 2485.30,2879.04 2486.81,2877.31"/>
    </edge>
    <edge id=":1692065429_0" function="internal">
        <lane id=":1692065429_0_0" index="0" allow="private emergency authority army vip passenger hov taxi bus coach delivery truck trailer motorcycle evehicle custom1 custom2" speed="39.44" length="8.21" shape="2584.01,2141.95 2582.55,2140.04 2581.85,2138.49 2581.14,2136.95 2579.67,2135.04"/>
        <lane id=":1692065429_0_1" index="1" allow="private emergency authority army vip passenger hov taxi bus coach delivery truck trailer motorcycle evehicle custom1 custom2" speed="39.44" length="8.21" shape="2581.69,2144.15 2580.22,2142.24 2579.52,2140.69 2578.82,2139.15 2577.35,2137.24"/>
        <lane id=":1692065429_0_2" index="2" allow="private emergency authority army vip passenger hov taxi bus coach delivery truck trailer motorcycle evehicle custom1 custom2" speed="39.44" length="8.21" shape="2581.69,2144.15 2579.86,2142.58 2578.36,2141.79 2576.86,2141.01 2575.03,2139.44"/>
    </edge>
    <edge id=":1693004007_0" function="internal">
        <lane id=":1693004007_0_0" index="0" disallow="tram rail_urban rail rail_electric rail_fast ship" speed="27.78" length="8.03" shape="3131.98,2882.41 3129.35,2874.97"/>
        <lane id=":1693004007_0_1" index="1" disallow="tram rail_urban rail rail_electric rail_fast ship" speed="27.78" length="8.03" shape="3128.99,2883.54 3126.31,2875.97"/>
        <lane id=":1693004007_0_2" index="2" disallow="tram rail_urban rail rail_electric rail_fast ship" speed="27.78" length="8.03" shape="3125.99,2884.67 3123.27,2876.96"/>
    </edge>
    <edge id=":1693004007_3" function="internal">
        <lane id=":1693004007_3_0" index="0" disallow="tram rail_urban rail rail_electric rail_fast ship" speed="25.00" length="42.31" shape="3144.00,2914.54 3143.40,2908.79 3140.84,2899.53 3136.95,2887.64 3132.39,2873.97"/>
    </edge>
    <edge id=":1693004037_0" function="internal">
        <lane id=":1693004037_0_0" index="0" disallow="tram rail_urban rail rail_electric rail_fast ship" speed="25.00" length="7.53" shape="3167.80,2916.79 3165.74,2917.65 3164.37,2918.34 3163.10,2919.21 3161.37,2920.61"/>
    </edge>
    <edge id=":1693004037_1" function="internal">
        <lane id=":1693004037_1_0" index="0" disallow="tram rail_urban rail rail_electric rail_fast ship" speed="27.78" length="7.62" shape="3169.00,2919.75 3162.16,2922.35"/>
        <lane id=":1693004037_1_1" index="1" disallow="tram rail_urban rail rail_electric rail_fast ship" speed="27.78" length="7.62" shape="3170.21,2922.72 3163.22,2925.36"/>
        <lane id=":1693004037_1_2" index="2" disallow="tram rail_urban rail rail_electric rail_fast ship" speed="27.78" length="7.62" shape="3171.41,2925.68 3164.29,2928.38"/>
        <lane id=":1693004037_1_3" index="3" disallow="tram rail_urban rail rail_electric rail_fast ship" speed="27.78" length="7.62" shape="3172.61,2928.65 3165.35,2931.40"/>
        <lane id=":1693004037_1_4" index="4" disallow="tram rail_urban rail rail_electric rail_fast ship" speed="27.78" length="7.62" shape="3173.82,2931.61 3166.41,2934.42"/>
    </edge>
    <edge id=":1693004084_0" function="internal">
        <lane id=":1693004084_0_0" index="0" disallow="tram rail_urban rail rail_electric rail_fast ship" speed="25.00" length="8.28" shape="3172.88,2950.36 3180.40,2946.91"/>
    </edge>
    <edge id=":1693004084_1" function="internal">
        <lane id=":1693004084_1_0" index="0" disallow="tram rail_urban rail rail_electric rail_fast ship" speed="27.78" length="7.84" shape="3171.62,2947.16 3179.07,2944.00"/>
        <lane id=":1693004084_1_1" index="1" disallow="tram rail_urban rail rail_electric rail_fast ship" speed="27.78" length="7.84" shape="3170.45,2944.18 3177.74,2941.09"/>
        <lane id=":1693004084_1_2" index="2" disallow="tram rail_urban rail rail_electric rail_fast ship" speed="27.78" length="7.84" shape="3169.27,2941.21 3176.41,2938.18"/>
        <lane id=":1693004084_1_3" index="3" disallow="tram rail_urban rail rail_electric rail_fast ship" speed="27.78" length="7.84" shape="3168.10,2938.23 3175.08,2935.26"/>
    </edge>
    <edge id=":1693004086_0" function="internal">
        <lane id=":1693004086_0_0" index="0" disallow="tram rail_urban rail rail_electric rail_fast ship" speed="25.00" length="7.93" shape="3112.60,2916.84 3115.11,2924.36"/>
    </edge>
    <edge id=":1693004086_1" function="internal">
        <lane id=":1693004086_1_0" index="0" disallow="tram rail_urban rail rail_electric rail_fast ship" speed="27.78" length="8.21" shape="3115.63,2915.80 3116.16,2918.14 3116.15,2919.83 3116.14,2921.51 3116.66,2923.85"/>
        <lane id=":1693004086_1_1" index="1" disallow="tram rail_urban rail rail_electric rail_fast ship" speed="27.78" length="8.21" shape="3118.66,2914.77 3119.20,2917.12 3119.19,2918.82 3119.18,2920.51 3119.70,2922.87"/>
        <lane id=":1693004086_1_2" index="2" disallow="tram rail_urban rail rail_electric rail_fast ship" speed="27.78" length="8.21" shape="3121.69,2913.74 3122.23,2916.10 3122.23,2917.81 3122.22,2919.51 3122.74,2921.88"/>
    </edge>
    <edge id=":1693004100_0" function="internal">
        <lane id=":1693004100_0_0" index="0" disallow="tram rail_urban rail rail_electric rail_fast ship" speed="13.27" length="9.96" shape="3166.25,2971.77 3165.00,2969.06 3163.75,2967.22 3163.01,2965.37 3163.31,2962.63"/>
    </edge>
    <edge id=":1693004100_1" function="internal">
        <lane id=":1693004100_1_0" index="0" disallow="tram rail_urban rail rail_electric rail_fast ship" speed="27.78" length="8.59" shape="3163.20,2972.74 3162.60,2970.06 3162.53,2968.14 3162.41,2966.23 3161.70,2963.59"/>
        <lane id=":1693004100_1_1" index="1" disallow="tram rail_urban rail rail_electric rail_fast ship" speed="27.78" length="8.59" shape="3160.15,2973.70 3159.62,2971.23 3159.60,2969.45 3159.54,2967.69 3158.90,2965.26"/>
        <lane id=":1693004100_1_2" index="2" disallow="tram rail_urban rail rail_electric rail_fast ship" speed="27.78" length="8.59" shape="3157.10,2974.67 3156.64,2972.40 3156.67,2970.77 3156.67,2969.16 3156.11,2966.92"/>
    </edge>
    <edge id=":1693004113_0" function="internal">
        <lane id=":1693004113_0_0" index="0" disallow="tram rail_urban rail rail_electric rail_fast ship" speed="25.00" length="39.05" shape="3078.59,2985.55 3091.24,2980.41 3101.76,2976.06 3109.58,2972.44 3114.12,2969.53"/>
    </edge>
    <edge id=":1693004113_1" function="internal">
        <lane id=":1693004113_1_0" index="0" disallow="tram rail_urban rail rail_electric rail_fast ship" speed="27.78" length="8.04" shape="3077.38,2982.59 3084.67,2979.82"/>
        <lane id=":1693004113_1_1" index="1" disallow="tram rail_urban rail rail_electric rail_fast ship" speed="27.78" length="8.04" shape="3076.16,2979.63 3083.60,2976.80"/>
        <lane id=":1693004113_1_2" index="2" disallow="tram rail_urban rail rail_electric rail_fast ship" speed="27.78" length="8.04" shape="3074.95,2976.67 3082.54,2973.79"/>
        <lane id=":1693004113_1_3" index="3" disallow="tram rail_urban rail rail_electric rail_fast ship" speed="27.78" length="8.04" shape="3073.74,2973.71 3081.48,2970.77"/>
    </edge>
    <edge id=":1693004124_0" function="internal">
        <lane id=":1693004124_0_0" index="0" disallow="tram rail_urban rail rail_electric rail_fast ship" speed="15.35" length="7.56" shape="3132.73,2976.30 3132.51,2978.52 3132.54,2980.07 3132.88,2981.58 3133.57,2983.70"/>
    </edge>
    <edge id=":1693004124_1" function="internal">
        <lane id=":1693004124_1_0" index="0" disallow="tram rail_urban rail rail_electric rail_fast ship" speed="27.78" length="7.98" shape="3134.06,2975.13 3136.61,2982.69"/>