<?xml version="1.0" encoding="UTF-8"?>

<!-- generated on 02/05/21 09:40:37 by Eclipse SUMO netconvert Version 1.6.0
<configuration xmlns:xsi="http://www.w3.org/2001/XMLSchema-instance" xsi:noNamespaceSchemaLocation="http://sumo.dlr.de/xsd/netconvertConfiguration.xsd">

    <input>
        <sumo-net-file value="osm.net.xml"/>
    </input>

    <output>
        <output-file value="osm_netconvert.net.xml"/>
        <output.street-names value="true"/>
    </output>

    <processing>
        <geometry.min-radius.fix.railways value="false"/>
        <geometry.max-grade.fix value="false"/>
        <offset.disable-normalization value="true"/>
        <lefthand value="true"/>
    </processing>

    <edge_removal>
        <keep-edges.by-vclass value="passenger"/>
        <remove-edges.by-vclass value="hov,taxi,bus,delivery,transport,lightrail,cityrail,rail_slow,rail_fast,motorcycle,bicycle,pedestrian"/>
        <remove-edges.by-type value="highway.track,highway.services,highway.unsurfaced"/>
    </edge_removal>

    <junctions>
        <no-internal-links value="true"/>
        <no-turnarounds value="true"/>
        <junctions.corner-detail value="5"/>
        <junctions.limit-turn-speed value="5.5"/>
        <rectangular-lane-cut value="false"/>
    </junctions>

    <pedestrian>
        <walkingareas value="false"/>
    </pedestrian>

    <report>
        <aggregate-warnings value="5"/>
    </report>

</configuration>
-->

<net version="1.6" junctionCornerDetail="5" lefthand="true" limitTurnSpeed="5.50" xmlns:xsi="http://www.w3.org/2001/XMLSchema-instance" xsi:noNamespaceSchemaLocation="http://sumo.dlr.de/xsd/net_file.xsd">

    <location netOffset="-665445.43,-1514381.00" convBoundary="0.00,0.00,6550.42,4484.91" origBoundary="100.517160,13.693759,100.597490,13.813737" projParameter="+proj=utm +zone=47 +ellps=WGS84 +datum=WGS84 +units=m +no_defs"/>

    <type id="highway.bridleway" priority="1" numLanes="1" speed="2.78" allow="pedestrian" oneway="1" width="2.00"/>
    <type id="highway.bus_guideway" priority="1" numLanes="1" speed="27.78" allow="bus" oneway="1"/>
    <type id="highway.cycleway" priority="1" numLanes="1" speed="8.33" allow="bicycle" oneway="0" width="1.00"/>
    <type id="highway.footway" priority="1" numLanes="1" speed="2.78" allow="pedestrian" oneway="1" width="2.00"/>
    <type id="highway.ford" priority="1" numLanes="1" speed="2.78" allow="army" oneway="0"/>
    <type id="highway.living_street" priority="2" numLanes="1" speed="2.78" disallow="tram rail_urban rail rail_electric rail_fast ship" oneway="0"/>
    <type id="highway.motorway" priority="14" numLanes="2" speed="39.44" allow="private emergency authority army vip passenger hov taxi bus coach delivery truck trailer motorcycle evehicle custom1 custom2" oneway="1"/>
    <type id="highway.motorway_link" priority="9" numLanes="1" speed="22.22" allow="private emergency authority army vip passenger hov taxi bus coach delivery truck trailer motorcycle evehicle custom1 custom2" oneway="1"/>
    <type id="highway.path" priority="1" numLanes="1" speed="2.78" allow="pedestrian bicycle" oneway="1" width="2.00"/>
    <type id="highway.pedestrian" priority="1" numLanes="1" speed="2.78" allow="pedestrian" oneway="1" width="2.00"/>
    <type id="highway.primary" priority="12" numLanes="2" speed="27.78" disallow="tram rail_urban rail rail_electric rail_fast ship" oneway="0"/>
    <type id="highway.primary_link" priority="7" numLanes="1" speed="22.22" disallow="tram rail_urban rail rail_electric rail_fast ship" oneway="0"/>
    <type id="highway.raceway" priority="15" numLanes="2" speed="83.33" allow="vip" oneway="0"/>
    <type id="highway.residential" priority="3" numLanes="1" speed="13.89" disallow="tram rail_urban rail rail_electric rail_fast ship" oneway="0"/>
    <type id="highway.secondary" priority="11" numLanes="1" speed="27.78" disallow="tram rail_urban rail rail_electric rail_fast ship" oneway="0"/>
    <type id="highway.secondary_link" priority="6" numLanes="1" speed="22.22" disallow="tram rail_urban rail rail_electric rail_fast ship" oneway="0"/>
    <type id="highway.service" priority="1" numLanes="1" speed="5.56" allow="pedestrian delivery bicycle" oneway="0"/>
    <type id="highway.stairs" priority="1" numLanes="1" speed="1.39" allow="pedestrian" oneway="1" width="2.00"/>
    <type id="highway.step" priority="1" numLanes="1" speed="1.39" allow="pedestrian" oneway="1" width="2.00"/>
    <type id="highway.steps" priority="1" numLanes="1" speed="1.39" allow="pedestrian" oneway="1" width="2.00"/>
    <type id="highway.tertiary" priority="10" numLanes="1" speed="22.22" disallow="tram rail_urban rail rail_electric rail_fast ship" oneway="0"/>
    <type id="highway.tertiary_link" priority="5" numLanes="1" speed="22.22" disallow="tram rail_urban rail rail_electric rail_fast ship" oneway="0"/>
    <type id="highway.track" priority="1" numLanes="1" speed="5.56" disallow="tram rail_urban rail rail_electric rail_fast ship" oneway="0"/>
    <type id="highway.trunk" priority="13" numLanes="2" speed="27.78" disallow="pedestrian bicycle tram rail_urban rail rail_electric rail_fast ship" oneway="0"/>
    <type id="highway.trunk_link" priority="8" numLanes="1" speed="22.22" disallow="pedestrian bicycle tram rail_urban rail rail_electric rail_fast ship" oneway="0"/>
    <type id="highway.unclassified" priority="4" numLanes="1" speed="13.89" disallow="tram rail_urban rail rail_electric rail_fast ship" oneway="0"/>
    <type id="highway.unsurfaced" priority="1" numLanes="1" speed="8.33" disallow="tram rail_urban rail rail_electric rail_fast ship" oneway="0"/>
    <type id="railway.highspeed" priority="21" numLanes="1" speed="69.44" allow="rail_fast" oneway="1"/>
    <type id="railway.light_rail" priority="19" numLanes="1" speed="27.78" allow="rail_urban" oneway="1"/>
    <type id="railway.preserved" priority="16" numLanes="1" speed="27.78" allow="rail" oneway="1"/>
    <type id="railway.rail" priority="20" numLanes="1" speed="44.44" allow="rail" oneway="1"/>
    <type id="railway.subway" priority="18" numLanes="1" speed="27.78" allow="rail_urban" oneway="1"/>
    <type id="railway.tram" priority="17" numLanes="1" speed="13.89" allow="tram" oneway="1"/>

    <edge id="-154579511" from="673423470" to="1671131657" name="Soi Navin" priority="3" type="highway.residential" shape="2557.86,2344.25 2454.81,2331.51 2405.62,2324.94 2351.27,2317.69 2369.36,2215.14 2381.56,2142.06 2384.20,2135.84 2388.73,2130.83 2395.27,2128.85 2486.26,2145.15 2528.84,2149.77">
        <lane id="-154579511_0" index="0" disallow="tram rail_urban rail rail_electric rail_fast ship" speed="13.89" length="542.13" shape="2550.86,2341.77 2455.01,2329.92 2405.83,2323.35 2353.14,2316.32 2370.94,2215.41 2383.11,2142.51 2385.57,2136.71 2389.62,2132.23 2395.37,2130.49 2486.03,2146.73 2528.67,2151.36">
            <param key="origId" value="154579511"/>
        </lane>
    </edge>
    <edge id="-156261354#1" from="281733330" to="85703484" name="Soi Chok Di" priority="3" type="highway.residential" shape="3758.35,2916.55 3758.45,2892.37 3759.06,2886.52">
        <lane id="-156261354#1_0" index="0" disallow="tram rail_urban rail rail_electric rail_fast ship" speed="13.89" length="30.06" shape="3759.98,2909.75 3760.03,2896.48">
            <param key="origId" value="156261354"/>
        </lane>
    </edge>
    <edge id="-156261354#2" from="cluster_3593959115_3593959121" to="281733330" name="Soi Chok Di" priority="3" type="highway.residential" shape="3607.92,2935.76 3681.63,2926.33 3758.35,2916.55">
        <lane id="-156261354#2_0" index="0" disallow="tram rail_urban rail rail_electric rail_fast ship" speed="13.89" length="162.39" shape="3616.02,2936.34 3681.83,2927.92 3751.25,2919.07">
            <param key="origId" value="156261354"/>
        </lane>
        <param key="origFrom" value="3593959121"/>
    </edge>
    <edge id="-156261361#1" from="1867131748" to="277921833" name="ซอยไผ่สิงห์โต" priority="3" type="highway.residential" shape="3275.64,3048.92 3279.50,2909.55 3279.32,2895.02">
        <lane id="-156261361#1_0" index="0" disallow="tram rail_urban rail rail_electric rail_fast ship" speed="13.89" length="153.95" shape="3277.44,3041.85 3281.10,2909.56 3281.07,2907.17">
            <param key="origId" value="156261361"/>
        </lane>
    </edge>
    <edge id="-156261361#4" from="cluster_277921955_4162388073_4162388075_8185739689" to="1867131748" name="ซอยไผ่สิงห์โต" priority="3" type="highway.residential" shape="3327.46,3275.33 3297.66,3272.83 3289.80,3268.21 3287.34,3265.55 3283.47,3260.46 3277.05,3243.12 3266.55,3207.16 3268.19,3193.66 3269.73,3163.77 3275.64,3048.92">
        <lane id="-156261361#4_0" index="0" disallow="tram rail_urban rail rail_electric rail_fast ship" speed="13.89" length="272.01" shape="3320.31,3273.12 3298.16,3271.27 3290.81,3266.95 3288.57,3264.52 3284.89,3259.68 3278.57,3242.62 3268.18,3207.03 3269.79,3193.80 3271.33,3163.85 3276.87,3056.20">
            <param key="origId" value="156261361"/>
        </lane>
        <param key="origFrom" value="277921955"/>
    </edge>
    <edge id="-156261365#0" from="8185752039" to="1685223051" priority="3" type="highway.residential">
        <lane id="-156261365#0_0" index="0" disallow="tram rail_urban rail rail_electric rail_fast ship" speed="13.89" length="13.23" shape="3664.86,3539.67 3664.26,3533.57">
            <param key="origId" value="156261365"/>
        </lane>
    </edge>
    <edge id="-156261365#1" from="272196515" to="8185752039" priority="3" type="highway.residential" shape="3673.72,3678.79 3669.64,3626.11 3663.97,3546.90">
        <lane id="-156261365#1_0" index="0" disallow="tram rail_urban rail rail_electric rail_fast ship" speed="13.89" length="132.25" shape="3675.32,3678.67 3671.24,3625.99 3666.07,3553.87">
            <param key="origId" value="156261365"/>
        </lane>
    </edge>
    <edge id="-156261422#1" from="270329466" to="270329333" name="ซอยสุขุมวิท 22" priority="3" type="highway.residential" shape="3737.25,3110.87 3790.11,3068.78 3798.77,3062.78 3852.27,3025.58">
        <lane id="-156261422#1_0" index="0" disallow="tram rail_urban rail rail_electric rail_fast ship" speed="13.89" length="143.27" shape="3744.35,3107.26 3791.06,3070.06 3799.68,3064.09 3846.56,3031.50">
            <param key="origId" value="156261422"/>
        </lane>
    </edge>
    <edge id="-156261422#12" from="5112151182" to="6680852884" name="ซอยสุขุมวิท 22" priority="3" type="highway.residential" shape="3769.22,3487.05 3766.71,3471.43 3765.85,3466.01 3764.20,3440.89 3762.77,3423.52">
        <lane id="-156261422#12_0" index="0" disallow="tram rail_urban rail rail_electric rail_fast ship" speed="13.89" length="63.91" shape="3769.64,3479.56 3768.29,3471.18 3767.44,3465.83 3765.80,3440.77 3764.96,3430.66">
            <param key="origId" value="156261422"/>
        </lane>
    </edge>
    <edge id="-156261422#14" from="272197602" to="5112151182" name="ซอยสุขุมวิท 22" priority="3" type="highway.residential" shape="3784.42,3571.41 3776.60,3529.56 3769.22,3487.05">
        <lane id="-156261422#14_0" index="0" disallow="tram rail_urban rail rail_electric rail_fast ship" speed="13.89" length="85.72" shape="3784.68,3564.07 3778.17,3529.28 3772.00,3493.71">
            <param key="origId" value="156261422"/>
        </lane>
    </edge>
    <edge id="-156261422#15" from="272197426" to="272197602" name="ซอยสุขุมวิท 22" priority="3" type="highway.residential" shape="3789.71,3916.17 3789.09,3891.87 3787.12,3823.43 3786.49,3801.05 3789.07,3745.88 3788.55,3627.63 3788.46,3615.60 3784.42,3571.41">
        <lane id="-156261422#15_0" index="0" disallow="tram rail_urban rail rail_electric rail_fast ship" speed="13.89" length="345.05" shape="3791.31,3916.13 3790.69,3891.83 3788.72,3823.38 3788.09,3801.06 3790.67,3745.91 3790.15,3627.62 3790.06,3615.52 3786.69,3578.68">
            <param key="origId" value="156261422"/>
        </lane>
    </edge>
    <edge id="-156261422#2" from="5678756062" to="270329466" name="ซอยสุขุมวิท 22" priority="3" type="highway.residential">
        <lane id="-156261422#2_0" index="0" disallow="tram rail_urban rail rail_electric rail_fast ship" speed="13.89" length="33.29" shape="3741.50,3136.72 3739.43,3116.43">
            <param key="origId" value="156261422"/>
        </lane>
    </edge>
    <edge id="-156261422#3" from="6680852874" to="5678756062" name="ซอยสุขุมวิท 22" priority="3" type="highway.residential">
        <lane id="-156261422#3_0" index="0" disallow="tram rail_urban rail rail_electric rail_fast ship" speed="13.89" length="59.24" shape="3746.82,3195.59 3742.88,3151.12">
            <param key="origId" value="156261422"/>
        </lane>
    </edge>
    <edge id="-156261422#4" from="6680852875" to="6680852874" name="ซอยสุขุมวิท 22" priority="3" type="highway.residential">
        <lane id="-156261422#4_0" index="0" disallow="tram rail_urban rail rail_electric rail_fast ship" speed="13.89" length="47.06" shape="3750.75,3242.41 3748.05,3209.97">
            <param key="origId" value="156261422"/>
        </lane>
    </edge>
    <edge id="-156261422#5" from="270329467" to="6680852875" name="ซอยสุขุมวิท 22" priority="3" type="highway.residential">
        <lane id="-156261422#5_0" index="0" disallow="tram rail_urban rail rail_electric rail_fast ship" speed="13.89" length="57.93" shape="3754.34,3299.05 3751.79,3256.89">
            <param key="origId" value="156261422"/>
        </lane>
    </edge>
    <edge id="-156261422#9" from="6680852884" to="270329467" name="ซอยสุขุมวิท 22" priority="3" type="highway.residential" shape="3762.77,3423.52 3758.61,3372.87 3757.12,3354.65 3756.91,3352.11 3753.95,3316.18 3753.26,3307.72">
        <lane id="-156261422#9_0" index="0" disallow="tram rail_urban rail rail_electric rail_fast ship" speed="13.89" length="116.19" shape="3763.78,3416.31 3760.20,3372.74 3758.71,3354.52 3758.50,3351.98 3755.67,3317.62">
            <param key="origId" value="156261422"/>
        </lane>
    </edge>
    <edge id="-156261434#1" from="267086973" to="272206252" name="สุขุมวิท 26" priority="3" type="highway.residential" shape="4259.47,3608.33 4282.06,3641.96 4285.69,3650.13 4297.11,3676.01 4310.84,3707.13 4337.33,3769.87 4341.00,3778.58 4346.43,3791.44 4357.26,3817.13 4357.97,3818.81 4368.88,3841.74 4377.25,3861.29 4392.88,3897.76 4417.64,3961.69 4431.82,3974.53">
        <lane id="-156261434#1_0" index="0" disallow="tram rail_urban rail rail_electric rail_fast ship" speed="13.89" length="407.00" shape="4262.38,3615.53 4280.65,3642.74 4284.23,3650.78 4295.65,3676.66 4309.37,3707.76 4335.86,3770.49 4339.53,3779.20 4344.96,3792.06 4355.79,3817.75 4356.51,3819.47 4367.42,3842.40 4375.78,3861.92 4391.40,3898.36 4416.28,3962.62 4425.22,3970.71">
            <param key="origId" value="156261434"/>
        </lane>
    </edge>
    <edge id="-156261434#2" from="cluster_5076544747_6680852869" to="267086973" name="สุขุมวิท 26" priority="3" type="highway.residential" shape="4247.80,3566.48 4259.47,3608.33">
        <lane id="-156261434#2_0" index="0" disallow="tram rail_urban rail rail_electric rail_fast ship" speed="13.89" length="46.64" shape="4248.38,3574.50 4255.80,3601.13">
            <param key="origId" value="156261434"/>
        </lane>
        <param key="origFrom" value="5076544747"/>
    </edge>
    <edge id="-156261482#1" from="765319714" to="765319629" name="สุขุมวิท 36" priority="3" type="highway.residential" shape="5082.17,3295.08 5090.35,3317.16 5142.09,3468.09">
        <lane id="-156261482#1_0" index="0" disallow="tram rail_urban rail rail_electric rail_fast ship" speed="13.89" length="183.10" shape="5083.10,3302.20 5088.84,3317.70 5137.34,3459.18">
            <param key="origId" value="156261482"/>
        </lane>
    </edge>
    <edge id="-156261482#10" from="765319603" to="3484265990" name="สุขุมวิท 36" priority="3" type="highway.residential" shape="4989.10,2819.28 4990.55,2855.00 4992.82,2910.44 4997.63,2945.68 5002.49,2976.10">
        <lane id="-156261482#10_0" index="0" disallow="tram rail_urban rail rail_electric rail_fast ship" speed="13.89" length="157.61" shape="4987.79,2826.36 4988.95,2855.07 4991.22,2910.58 4996.05,2945.91 4999.76,2969.17">
            <param key="origId" value="156261482"/>
        </lane>
    </edge>
    <edge id="-156261482#11" from="2680500880" to="765319603" name="สุขุมวิท 36" priority="3" type="highway.residential" shape="4987.79,2760.16 4989.42,2776.35 4989.10,2819.28">
        <lane id="-156261482#11_0" index="0" disallow="tram rail_urban rail rail_electric rail_fast ship" speed="13.89" length="59.20" shape="4986.97,2767.98 4987.82,2776.42 4987.55,2812.03">
            <param key="origId" value="156261482"/>
        </lane>
    </edge>
    <edge id="-156261482#12" from="8289012572" to="2680500880" name="สุขุมวิท 36" priority="3" type="highway.residential">
        <lane id="-156261482#12_0" index="0" disallow="tram rail_urban rail rail_electric rail_fast ship" speed="13.89" length="39.69" shape="4987.20,2727.58 4986.41,2752.95">
            <param key="origId" value="156261482"/>
        </lane>
    </edge>
    <edge id="-156261482#13" from="765319662" to="8289012572" name="สุขุมวิท 36" priority="3" type="highway.residential">
        <lane id="-156261482#13_0" index="0" disallow="tram rail_urban rail rail_electric rail_fast ship" speed="13.89" length="34.90" shape="4988.28,2692.69 4987.65,2713.19">
            <param key="origId" value="156261482"/>
        </lane>
    </edge>
    <edge id="-156261482#14" from="765319703" to="765319662" name="สุขุมวิท 36" priority="3" type="highway.residential">
        <lane id="-156261482#14_0" index="0" disallow="tram rail_urban rail rail_electric rail_fast ship" speed="13.89" length="120.88" shape="4991.41,2571.91 4988.69,2678.28">
            <param key="origId" value="156261482"/>
        </lane>
    </edge>
    <edge id="-156261482#15" from="cluster_8288202894_8288278220" to="765319703" name="สุขุมวิท 36" priority="3" type="highway.residential" shape="4996.22,2516.44 4993.19,2564.77">
        <lane id="-156261482#15_0" index="0" disallow="tram rail_urban rail rail_electric rail_fast ship" speed="13.89" length="53.55" shape="4994.17,2523.59 4992.05,2557.35">
            <param key="origId" value="156261482"/>
        </lane>
        <param key="origFrom" value="8288202894"/>
    </edge>
    <edge id="-156261482#18" from="8288278222" to="cluster_8288202894_8288278220" name="สุขุมวิท 36" priority="3" type="highway.residential" shape="4998.74,2438.06 4997.25,2469.03 4996.49,2485.02 4996.31,2506.21">
        <lane id="-156261482#18_0" index="0" disallow="tram rail_urban rail rail_electric rail_fast ship" speed="13.89" length="73.31" shape="4996.78,2445.51 4995.65,2468.95 4994.89,2484.98 4994.77,2499.10">
            <param key="origId" value="156261482"/>
        </lane>
        <param key="origTo" value="8288278220"/>
    </edge>
    <edge id="-156261482#2" from="765319536" to="765319714" name="สุขุมวิท 36" priority="3" type="highway.residential">
        <lane id="-156261482#2_0" index="0" disallow="tram rail_urban rail rail_electric rail_fast ship" speed="13.89" length="98.20" shape="5051.82,3208.58 5078.36,3288.66">
            <param key="origId" value="156261482"/>
        </lane>
    </edge>
    <edge id="-156261482#20" from="765319721" to="8288278222" name="สุขุมวิท 36" priority="3" type="highway.residential" shape="5000.30,2405.81 5000.11,2409.58 4998.74,2438.06">
        <lane id="-156261482#20_0" index="0" disallow="tram rail_urban rail rail_electric rail_fast ship" speed="13.89" length="32.29" shape="4998.17,2416.55 4997.47,2431.09">
            <param key="origId" value="156261482"/>
        </lane>
    </edge>
    <edge id="-156261482#4" from="8288272591" to="765319536" name="สุขุมวิท 36" priority="3" type="highway.residential" shape="5039.07,3154.85 5046.83,3184.70 5048.68,3191.88 5051.28,3201.87">
        <lane id="-156261482#4_0" index="0" disallow="tram rail_urban rail rail_electric rail_fast ship" speed="13.89" length="48.58" shape="5039.21,3161.73 5045.28,3185.10 5047.13,3192.28 5047.78,3194.76">
            <param key="origId" value="156261482"/>
        </lane>
    </edge>
    <edge id="-156261482#5" from="cluster_6680852843_765319745" to="8288272591" name="สุขุมวิท 36" priority="3" type="highway.residential" shape="5028.17,3116.34 5039.07,3154.85">
        <lane id="-156261482#5_0" index="0" disallow="tram rail_urban rail rail_electric rail_fast ship" speed="13.89" length="51.50" shape="5028.45,3123.20 5035.38,3147.70">
            <param key="origId" value="156261482"/>
        </lane>
        <param key="origFrom" value="765319745"/>
    </edge>
    <edge id="-156261482#7" from="765319572" to="cluster_6680852843_765319745" name="สุขุมวิท 36" priority="3" type="highway.residential" shape="5006.73,3007.69 5018.18,3068.98 5022.13,3094.20">
        <lane id="-156261482#7_0" index="0" disallow="tram rail_urban rail rail_electric rail_fast ship" speed="13.89" length="99.35" shape="5006.44,3014.85 5016.60,3069.25 5019.54,3088.02">
            <param key="origId" value="156261482"/>
        </lane>
        <param key="origTo" value="6680852843"/>
    </edge>
    <edge id="-156261482#8" from="3484265990" to="765319572" name="สุขุมวิท 36" priority="3" type="highway.residential">
        <lane id="-156261482#8_0" index="0" disallow="tram rail_urban rail rail_electric rail_fast ship" speed="13.89" length="31.87" shape="5001.90,2983.76 5004.18,3000.70">
            <param key="origId" value="156261482"/>
        </lane>
    </edge>
    <edge id="-156261483#0" from="cluster_1812175106_765319554" to="765319602" name="ซอยแสนสุข" priority="3" type="highway.residential" shape="4629.94,3016.42 4631.34,3032.38 4631.51,3033.67 4631.80,3034.44 4632.23,3035.02 4632.94,3035.30 4718.27,3024.84">
        <lane id="-156261483#0_0" index="0" disallow="tram rail_urban rail rail_electric rail_fast ship" speed="13.89" length="107.47" shape="4628.98,3023.82 4629.75,3032.53 4629.95,3034.06 4630.38,3035.21 4631.22,3036.34 4632.73,3036.94 4711.47,3027.29">
            <param key="origId" value="156261483"/>
        </lane>
        <param key="origFrom" value="1812175106"/>
    </edge>
    <edge id="-156261483#2" from="765319588" to="cluster_1812175106_765319554" name="ซอยแสนสุข" priority="3" type="highway.residential" shape="4627.95,2989.88 4629.32,3012.71">
        <lane id="-156261483#2_0" index="0" disallow="tram rail_urban rail rail_electric rail_fast ship" speed="13.89" length="24.76" shape="4626.79,2997.21 4627.28,3005.47">
            <param key="origId" value="156261483"/>
        </lane>
        <param key="origTo" value="765319554"/>
    </edge>
    <edge id="-156261483#3" from="765319482" to="765319588" name="ซอยแสนสุข" priority="3" type="highway.residential">
        <lane id="-156261483#3_0" index="0" disallow="tram rail_urban rail rail_electric rail_fast ship" speed="13.89" length="40.44" shape="4622.66,2957.03 4625.54,2982.78">
            <param key="origId" value="156261483"/>
        </lane>
    </edge>
    <edge id="-156261483#4" from="765319494" to="765319482" name="ซอยแสนสุข" priority="3" type="highway.residential">
        <lane id="-156261483#4_0" index="0" disallow="tram rail_urban rail rail_electric rail_fast ship" speed="13.89" length="40.62" shape="4619.01,2916.67 4621.23,2942.57">
            <param key="origId" value="156261483"/>
        </lane>
    </edge>
    <edge id="-156261483#5" from="765319666" to="765319494" name="ซอยแสนสุข" priority="3" type="highway.residential" shape="4617.86,2872.79 4618.48,2892.04 4619.98,2909.22">
        <lane id="-156261483#5_0" index="0" disallow="tram rail_urban rail rail_electric rail_fast ship" speed="13.89" length="36.51" shape="4616.50,2880.22 4616.88,2892.14 4617.75,2902.13">
            <param key="origId" value="156261483"/>
        </lane>
    </edge>
    <edge id="-156261483#6" from="765319504" to="765319666" name="ซอยแสนสุข" priority="3" type="highway.residential">
        <lane id="-156261483#6_0" index="0" disallow="tram rail_urban rail rail_electric rail_fast ship" speed="13.89" length="31.08" shape="4618.85,2849.09 4617.14,2864.72">
            <param key="origId" value="156261483"/>
        </lane>
    </edge>
    <edge id="-156261483#7" from="765319515" to="765319504" name="ซอยแสนสุข" priority="3" type="highway.residential" shape="4643.43,2642.44 4637.87,2691.17 4632.98,2741.55 4621.25,2841.90">
        <lane id="-156261483#7_0" index="0" disallow="tram rail_urban rail rail_electric rail_fast ship" speed="13.89" length="200.70" shape="4641.01,2649.50 4636.28,2691.00 4631.39,2741.38 4620.53,2834.31">
            <param key="origId" value="156261483"/>
        </lane>
    </edge>
    <edge id="-156261483#9" from="765319547" to="765319515" name="ซอยแสนสุข" priority="3" type="highway.residential" shape="4633.90,2554.03 4636.82,2561.33 4639.73,2575.12 4642.34,2597.81 4643.78,2619.12 4643.43,2642.44">
        <lane id="-156261483#9_0" index="0" disallow="tram rail_urban rail rail_electric rail_fast ship" speed="13.89" length="89.48" shape="4635.50,2562.84 4638.15,2575.38 4640.75,2597.96 4642.18,2619.16 4641.93,2635.60">
            <param key="origId" value="156261483"/>
        </lane>
    </edge>
    <edge id="-156261504#0" from="765319700" to="765319572" name="ซอยนภาศัพท์ 4" priority="3" type="highway.residential">
        <lane id="-156261504#0_0" index="0" disallow="tram rail_urban rail rail_electric rail_fast ship" speed="13.89" length="208.10" shape="4807.95,3032.02 4999.70,3010.10">
            <param key="origId" value="156261504"/>
        </lane>
    </edge>
    <edge id="-156261504#1" from="765319602" to="765319700" name="ซอยนภาศัพท์ 4" priority="3" type="highway.residential" shape="4718.27,3024.84 4720.54,3040.12 4722.04,3043.03 4726.63,3044.45 4799.98,3031.32">
        <lane id="-156261504#1_0" index="0" disallow="tram rail_urban rail rail_electric rail_fast ship" speed="13.89" length="98.04" shape="4717.72,3032.02 4719.00,3040.62 4720.93,3044.36 4726.53,3046.09 4793.87,3034.04">
            <param key="origId" value="156261504"/>
        </lane>
    </edge>
    <edge id="-156261504#2" from="765319499" to="765319602" name="ซอยนภาศัพท์ 4" priority="3" type="highway.residential">
        <lane id="-156261504#2_0" index="0" disallow="tram rail_urban rail rail_electric rail_fast ship" speed="13.89" length="21.53" shape="4715.34,3010.76 4716.02,3018.07">
            <param key="origId" value="156261504"/>
        </lane>
    </edge>
    <edge id="-156261504#3" from="765319639" to="765319499" name="ซอยนภาศัพท์ 4" priority="3" type="highway.residential">
        <lane id="-156261504#3_0" index="0" disallow="tram rail_urban rail rail_electric rail_fast ship" speed="13.89" length="23.29" shape="4712.88,2987.59 4713.86,2996.41">
            <param key="origId" value="156261504"/>
        </lane>
    </edge>
    <edge id="-156261504#4" from="cluster_3484270295_765319648" to="765319639" name="ซอยนภาศัพท์ 4" priority="3" type="highway.residential" shape="4709.72,2940.08 4713.67,2980.25">
        <lane id="-156261504#4_0" index="0" disallow="tram rail_urban rail rail_electric rail_fast ship" speed="13.89" length="48.92" shape="4708.84,2947.44 4711.38,2973.28">
            <param key="origId" value="156261504"/>
        </lane>
        <param key="origFrom" value="765319648"/>
    </edge>
    <edge id="-156357483" from="1686126961" to="1686126957" name="สุขุมวิท 51" priority="3" type="highway.residential">
        <lane id="-156357483_0" index="0" disallow="tram rail_urban rail rail_electric rail_fast ship" speed="13.89" length="65.26" shape="5023.12,3634.19 5019.95,3580.53">
            <param key="origId" value="156357483"/>
        </lane>
    </edge>
    <edge id="-156465604" from="1687148470" to="1687148454" priority="3" type="highway.residential" shape="2528.91,1942.41 2537.73,1917.22 2541.19,1913.74 2556.41,1910.60 2603.71,1905.43">
        <lane id="-156465604_0" index="0" disallow="tram rail_urban rail rail_electric rail_fast ship" speed="13.89" length="94.72" shape="2530.42,1942.94 2539.12,1918.09 2541.99,1915.21 2556.66,1912.18 2596.03,1907.88">
            <param key="origId" value="156465604"/>
        </lane>
    </edge>
    <edge id="-168823181" from="1800206472" to="272555740" priority="3" type="highway.residential">
        <lane id="-168823181_0" index="0" disallow="tram rail_urban rail rail_electric rail_fast ship" speed="13.89" length="81.02" shape="4267.92,2532.78 4342.14,2533.65">
            <param key="origId" value="168823181"/>
        </lane>
    </edge>
    <edge id="-170065299#0" from="8064590785" to="267086951" name="Soi Atha Kravi 1" priority="3" type="highway.residential" shape="4370.12,3253.82 4366.70,3244.57 4363.63,3240.06 4359.73,3231.05 4357.84,3218.13 4359.93,3199.61 4359.71,3190.63 4357.22,3183.32 4284.49,3080.06">
        <lane id="-170065299#0_0" index="0" disallow="tram rail_urban rail rail_electric rail_fast ship" speed="13.89" length="199.84" shape="4369.22,3246.78 4368.13,3243.83 4365.04,3239.29 4361.28,3230.61 4359.45,3218.10 4361.53,3199.68 4361.30,3190.35 4358.66,3182.59 4290.56,3085.91">
            <param key="origId" value="170065299"/>
        </lane>
    </edge>
    <edge id="-170065299#1" from="1812170065" to="8064590785" name="Soi Atha Kravi 1" priority="3" type="highway.residential">
        <lane id="-170065299#1_0" index="0" disallow="tram rail_urban rail rail_electric rail_fast ship" speed="13.89" length="75.73" shape="4397.86,3324.31 4374.23,3260.32">
            <param key="origId" value="170065299"/>
        </lane>
    </edge>