<?xml version='1.0' encoding='ASCII'?>
<routes>
  <route edges="157373209#0 157373209#2 756119203 25047032#0 25047032#1-AddedOnRampEdge 25047032#1 824116558 824116559#0 25053626#0 25053626#0-AddedOffRampEdge 25053626#1 824750037 185563494#0 185563494#1 824116554 824116555#0 824116555#2-AddedOnRampEdge 824116555#2 824116555#2-AddedOffRampEdge 824116555#5 903694548#0 903694548#1-AddedOnRampEdge 903694548#1 292576585#1 292576585#2 292576585#3 211040184 211040210#0 211040210#1-AddedOnRampEdge 211040210#1 210884217#4-AddedOnRampEdge 210884217#4 210884217#4-AddedOffRampEdge 25044963 829639198-AddedOnRampEdge 829639198 156970488"/>
  <route edges="820371000#0 820371000#3 820371000#4 820371000#8 825786432 825786433#0 825786433#2 825786433#7 820373193 820373194#0 482209833#0 292571830 321845932#2 321845932#3 903694548#0 903694548#1-AddedOnRampEdge 903694548#1 292576585#1 292576585#2 292576585#3 211040184 211040210#0 211040210#1-AddedOnRampEdge 211040210#1 210884217#4-AddedOnRampEdge 210884217#4 210884217#4-AddedOffRampEdge 25046556 829639199-AddedOnRampEdge 829639199 829639199-AddedOffRampEdge 156966514"/>
  <route edges="30046784 156970499 156970499-AddedOffRampEdge 25044880 25044852#0-AddedOnRampEdge 25044852#0 25044852#0-AddedOffRampEdge 211040206 211040206-AddedOffRampEdge 211040188 153225687#6 153225687#8 153225687#8-AddedOffRampEdge 903694549#3 482384842#0 482384842#1-AddedOnRampEdge 482384842#1 321845933#1 321845933#5 482209830#0 -453962283#3 -693832668#3 76510937#0 170065299#0 865229405 76510933#3 76510933#4 76510933#5 76510933#6 76510933#7 76510933#8 -76510933#8"/>
  <route edges="156966532 25046707#0 25046707#1 25046707#1-AddedOffRampEdge 829639197 25044852#0-AddedOnRampEdge 25044852#0 25044852#0-AddedOffRampEdge 211040206 211040206-AddedOffRampEdge 211040188 153225687#6 153225687#8 153225687#8-AddedOffRampEdge 482384844 482384850#1-AddedOnRampEdge 482384850#1 482384850#2 338595767 338595771#1 824116546 824116547 824116548 824116545 481971013#0 481971013#1-AddedOnRampEdge 481971013#1 481971013#5-AddedOnRampEdge 481971013#5 25292712#0"/>
  <route edges="-156261422#15 -156261422#14 -156261422#12 -156261422#9 -156261422#5 -156261422#4 -156261422#3 -156261422#2 -156261422#1 836466787#0 836466787#2 459551209#0 459551209#3 482209833#0 292571830 321845932#2 321845932#3 903694548#0 903694548#1-AddedOnRampEdge 903694548#1 292576585#1 292576585#2 292576585#3 211040184 211040210#0 211040210#1-AddedOnRampEdge 211040210#1 210884217#4-AddedOnRampEdge 210884217#4 210884217#4-AddedOffRampEdge 25044963 829639198-AddedOnRampEdge 829639198 156970488"/>
  <route edges="156966532 25046707#0 25046707#1 25046707#1-AddedOffRampEdge 829639197 25044852#0-AddedOnRampEdge 25044852#0 25044852#0-AddedOffRampEdge 211040206 211040206-AddedOffRampEdge 211040186#1 292576585#3 292576585#5 292576585#6-AddedOnRampEdge 292576585#6"/>
  <route edges="749982843#0 710591527#0 156261482#0 156261482#2 156261482#3 156261482#5 156261482#7 156261504#0 156261504#1 156261504#2 156261504#3 -61232378#1 156261483#3 192166622#1 -192166622#1"/>
  <route edges="210884217#0 210884217#1 210884217#2 210884217#2-AddedOffRampEdge 210884217#3 210884217#4-AddedOnRampEdge 210884217#4 210884217#4-AddedOffRampEdge 25046556 829639199-AddedOnRampEdge 829639199 829639199-AddedOffRampEdge 156966554#1"/>
  <route edges="820371000#0 820371000#3 820371000#4 820371000#8 825786432 825786433#0 825786433#2 825786433#7 820373193 820373194#0 482209833#0 292571830 321845932#2 321845932#3 903694548#0 903694548#1-AddedOnRampEdge 903694548#1 292576585#1 211040191 211040211#1-AddedOnRampEdge 211040211#1 25044852#2-AddedOnRampEdge 25044852#2 25044852#2-AddedOffRampEdge 211040194"/>
  <route edges="-76510933#5 -76510933#4 -76510933#3 -865229405 -170065299#0 76510937#1 170065517#0 170065517#2 170065517#3 170065517#5 820373194#0 482209833#0 292571830 321845932#2 321845932#3 903694548#0 903694548#1-AddedOnRampEdge 903694548#1 292576585#1 292576585#2 292576585#3 211040184 211040210#0 211040210#1-AddedOnRampEdge 211040210#1 210884217#4-AddedOnRampEdge 210884217#4 210884217#4-AddedOffRampEdge 25046556 829639199-AddedOnRampEdge 829639199 829639199-AddedOffRampEdge 156966514"/>
  <route edges="749982843#0 710591527#0 710591527#1 693832672 61232392#1 61232392#3 693832673#1 -450629007 -76510933#3 -865229405 -170065299#0 76510937#1 170065517#0 170065517#2 170065517#3 170065517#5 820373194#0 482209833#0 292571830 321845932#2 321845932#3 903694548#0 903694548#1-AddedOnRampEdge 903694548#1 292576585#1 292576585#2 292576585#3 292576585#5 292576585#6-AddedOnRampEdge 292576585#6"/>
  <route edges="453680009#0 453680009#2 25053655#0 25053655#0-AddedOffRampEdge 825786414 821785869#0 821785867 481971011#0 481971011#1-AddedOnRampEdge 481971011#1 459492913#0 459492913#2 459492913#3 459492913#4 825786399#0 825786399#1 825786399#2 786133405 825786398#0 825786398#1 752225466#0 825786395#0"/>
  <route edges="25053655#0 25053655#0-AddedOffRampEdge 178872925 481971013#5-AddedOnRampEdge 481971013#5 25292712#0"/>
  <route edges="749982843#0 710591527#0 710591527#1 693832672 61232392#1 61232392#3 693832673#1 -450629007 -76510933#3 -865229405 -170065299#0 76510937#1 170065517#0 170065517#2 170065517#3 170065517#5 820373194#0 482209831#0 482209831#2 459551208#1 820373195 820373196#0 820373198#0 825786415 825786416 481971011#0 481971011#1-AddedOnRampEdge 481971011#1 459492913#0 459492913#2 459492913#3 459492913#4 825786399#0 825786399#1 825786399#2 459492912#0"/>
  <route edges="749982843#0 710591527#0 710591527#1 693832672 61232392#1 61232392#3 693832673#1 -450629007 -76510933#3 -865229405 -170065299#0 76510937#1 170065517#0 170065517#2 170065517#3 170065517#5 820373194#0 482209831#0 482209831#2 459551208#1 820373195 820373196#0 820373198#0 825786415 825786416 481971013#0 481971013#1-AddedOnRampEdge 481971013#1 481971013#5-AddedOnRampEdge 481971013#5 25292712#0"/>
  <route edges="480596367 825786383#0 825786383#2 825786397#0 825786397#1 752225467 459492912#0 459492912#1 825786400 459492917#1 825786410 153225678#0 153225678#1-AddedOnRampEdge 153225678#1 153225678#2 153225678#3 820340552#0 820340552#1 820340552#2 -836466787#4 -836466787#1 -328942767#18 156261350#5"/>
  <route edges="156966532 25046707#0 25046707#1 25046707#1-AddedOffRampEdge 829639197 25044852#0-AddedOnRampEdge 25044852#0 25044852#0-AddedOffRampEdge 211040206 211040206-AddedOffRampEdge 211040188 153225687#6 153225687#8 153225687#8-AddedOffRampEdge 482384844 482384850#1-AddedOnRampEdge 482384850#1 482384850#2 847086238#0 847086238#1 847086238#2 824116552#1 824116552#2 824116553 824116557 824116556 157373201#0 157373201#0-AddedOffRampEdge 157373201#3 758274454 157373203#1 157373203#2"/>
  <route edges="-865196560#0 865196560#0 -809900342#1 -809900342#0 25047974#6 25047974#7 25047974#8 459492916#0 459492916#0-AddedOffRampEdge 824116544 338595769#0 338595769#1 824116552#0 824116552#1 824116552#2 824116553 824116557 824116556 157373201#0 157373201#0-AddedOffRampEdge 157373201#3 758274454 157373203#1 157373203#2"/>
  <route edges="157373209#0 157373209#2 756119203 25047032#0 25047032#1-AddedOnRampEdge 25047032#1 824116558 824116559#0 25053626#0 25053626#0-AddedOffRampEdge 847086239 25047974#1 25047974#2 25047974#3 25047974#4 25047974#5 25047974#6 25047974#7 25047974#8 459492913#0 459492913#2 459492913#3 459492913#4 825786399#0 825786399#1 825786399#2 786133405 825786398#0 825786398#1 752225466#0 825786395#0"/>
  <route edges="156966517 25046707#0 25046707#1 25046707#1-AddedOffRampEdge 829639197 25044852#0-AddedOnRampEdge 25044852#0 25044852#0-AddedOffRampEdge 25044852#1 25044852#2-AddedOnRampEdge 25044852#2 25044852#2-AddedOffRampEdge 25044852#3"/>
  <route edges="749982843#0 710591527#0 710591527#1 693832672 61232392#1 61232392#3 693832673#1 -450629007 -76510933#3 -865229405 -170065299#0 76510937#1 170065517#0 170065517#2 170065517#3 170065517#5 820373194#0 482209831#0 482209831#2 459551208#1 820373195 820373196#0 820373198#0 825786415 157059855 824116549#0 824116550#0 824750039#1 25047974#0 25047974#1 25047974#2 25047974#3 25047974#4 25047974#5 809900342#0 809900343"/>
  <route edges="156966532 25046707#0 25046707#1 25046707#1-AddedOffRampEdge 829639197 25044852#0-AddedOnRampEdge 25044852#0 25044852#0-AddedOffRampEdge 211040206 211040206-AddedOffRampEdge 211040188 153225687#6 153225687#8 153225687#8-AddedOffRampEdge 482384844 482384850#1-AddedOnRampEdge 482384850#1 482384850#2 847086238#0 847086238#1 847086238#2 824116552#1 824116552#2 824116553 824116557 -783785001#7 -783785001#6 783785576 -783785575#0"/>
  <route edges="210884217#0 210884217#1 895466574 -211040189#1 -211040189#0 -211040223#0 -55814053#6 -55814053#2 -55814053#1 45033613#0 45033613#2 482384850#0 482384850#1-AddedOnRampEdge 482384850#1 482384850#2 847086238#0 847086238#1 847086238#2 824116552#1 824116552#2 824116553 824116557 824116556 157373201#0 157373201#0-AddedOffRampEdge 157373201#3 758274454 157373203#1 157373203#2"/>
  <route edges="820340552#2 459551209#0 459551209#3 482209831#0 482209831#2 459551208#1 820373195 820373196#0 820373198#0 825786415 157059855 824116549#0 824116550#0 824750039#1 338595769#0 338595769#1 824116552#0 824116552#1 824116552#2 824116553 824116557 824116556 157373201#0 157373201#0-AddedOffRampEdge 157373201#3 758274454 157373203#1 157373203#2"/>
  <route edges="453680009#0 453680009#2 25053655#0 25053655#0-AddedOffRampEdge 825786414 821785869#0 821785867 9168676 824116549#0 824116550#0 847086240 185563494#1 824116554 824116555#0 824116555#2-AddedOnRampEdge 824116555#2 824116555#2-AddedOffRampEdge 824116555#5 903694548#0 903694548#1-AddedOnRampEdge 903694548#1 292576585#1 292576585#2 292576585#3 211040184 211040210#0 211040210#1-AddedOnRampEdge 211040210#1 210884217#4-AddedOnRampEdge 210884217#4 210884217#4-AddedOffRampEdge 25044963 829639198-AddedOnRampEdge 829639198 156970488"/>
  <route edges="891759499#1 891759498 -891759499#0 -192166621#2 -192166621#1 -192166621#0 459351086#0 459351086#1 820371000#4 820371000#8 825786432 825786433#0 825786433#2 825786433#7 820373193 820373194#0 482209831#0 482209831#2 459551208#1 820373195 820373196#0 820373198#0 825786415 825786416 481971013#0 481971013#1-AddedOnRampEdge 481971013#1 481971013#5-AddedOnRampEdge 481971013#5 25292712#0"/>
  <route edges="824116544 338595771#1 824116546 824116547 824116548 824116545 153225678#0 153225678#1-AddedOnRampEdge 153225678#1 153225678#2 153225678#3 820340552#0 820340552#1 820340552#2 459551209#0 459551209#3 482209830#0 300813736#0 300813736#2 820345539#3 820345543 820345542#0 820345542#4 820345542#7"/>
  <route edges="-156261422#15 -156261422#14 -156261422#12 -156261422#9 -156261422#5 -156261422#4 -156261422#3 -156261422#2 -156261422#1 836466787#0 836466787#2 459551209#0 459551209#3 482209830#0 300813736#0 300813736#2 820345539#3 820345543 820345542#0 -156261482#20 -156261482#18 -156261482#15 -156261482#14 -156261482#13 -156261482#12 -156261482#11 -156261482#10 -156261482#8 -156261482#7 710591525#0"/>
  <route edges="30046784 156970499 156970499-AddedOffRampEdge 25044880 25044852#0-AddedOnRampEdge 25044852#0 25044852#0-AddedOffRampEdge 211040206 211040206-AddedOffRampEdge 211040188 153225687#6 153225687#8 153225687#8-AddedOffRampEdge 482384844 482384850#1-AddedOnRampEdge 482384850#1 482384850#2 338595767 25047974#0 25047974#1 25047974#2 25047974#3 25047974#4 25047974#5 25047974#6 25047974#7 25047974#8 459492913#0 459492913#2 459492913#3 459492913#4 825786399#0 825786399#1 825786399#2 786133405 825786398#0 825786398#1 752225466#0 825786395#0"/>
  <route edges="453680009#0 453680009#2 25053655#0 25053655#0-AddedOffRampEdge 825786414 821785869#0 821785867 9168676 824116549#0 824116550#0 847086240 185563494#1 824116554 824116555#0 824116555#2-AddedOnRampEdge 824116555#2 824116555#2-AddedOffRampEdge 824116555#5 903694548#0 903694548#1-AddedOnRampEdge 903694548#1 292576585#1 292576585#2 292576585#3 211040184 211040210#0 211040210#1-AddedOnRampEdge 211040210#1 210884217#4-AddedOnRampEdge 210884217#4 210884217#4-AddedOffRampEdge 25046556 829639199-AddedOnRampEdge 829639199 829639199-AddedOffRampEdge 156966554#1"/>
  <route edges="820371000#0 820371000#3 820371000#4 820371000#8 825786432 825786433#0 825786433#2 825786433#7 820373193 820373194#0 482209831#0 482209831#2 459551208#1 820373195 820373196#0 820373198#0 825786415 157059855 824116549#0 824116550#0 824750039#1 338595769#0 338595769#1 824116552#0 824116552#1 824116552#2"/>
  <route edges="482384842#1-AddedOnRampEdge 482384842#1 25053183#1 820373196#0 820373198#0 825786415 825786416 481971013#0 481971013#1-AddedOnRampEdge 481971013#1 481971013#5-AddedOnRampEdge 481971013#5 25292712#0"/>
  <route edges="710591530#1 -710591530#1 -710591530#0 -25053099#3 -25053099#2 693832669#1 693832668#1 453962283#0 300813736#0 820373194#0 482209831#0 482209831#2 459551208#1 820373195 820373196#0 820373198#0 825786415 825786416 481971013#0 481971013#1-AddedOnRampEdge 481971013#1 481971013#5-AddedOnRampEdge 481971013#5 25292712#0"/>
  <route edges="-156261422#15 -156261422#14 -156261422#12 -156261422#9 -156261422#5 -156261422#4 -156261422#3 -156261422#2 -156261422#1 836466787#0 836466787#2 459551209#0 459551209#3 482209831#0 482209831#2 459551208#1 820373195 820373196#0 820373198#0 825786415 825786416 481971011#0 481971011#1-AddedOnRampEdge 481971011#1 459492913#0 459492913#2 459492913#3 459492913#4 825786399#0 825786399#1 825786399#2 786133405 825786398#0 825786398#1 752225466#0 825786395#0"/>
  <route edges="820371000#0 820371000#3 820345542#7"/>
  <route edges="210884217#0 210884217#1 895466574 -211040189#1 -211040189#0 -211040223#0 -55814053#6 -55814053#2 -55814053#1 45033613#0 45033613#2 482384842#0 482384842#1-AddedOnRampEdge 482384842#1 321845933#1 321845933#5 482209830#0 -453962283#3 156261350#0 156261350#5 156261422#6 156261422#10 156261422#13 156261422#15"/>
  <route edges="820371000#0 820371000#3 820371000#4 820371000#8 825786432 825786433#0 825786433#2 825786433#7 820373193 820373194#0 482209831#0 482209831#2 459551208#1 820373195 820373196#0 820373198#0 825786415 825786416 481971011#0 481971011#1-AddedOnRampEdge 481971011#1 459492913#0 459492913#2 459492913#3 459492913#4 825786399#0 825786399#1 825786399#2 786133405 825786398#0 825786398#1 752225466#0 825786395#0"/>
  <route edges="552779154#0 552779154#1 552779154#3 552779154#4 552779154#6 157063979 824116551#0 824116551#1 -847086238#1 -847086238#0 338595767 25047974#0 25047974#1 25047974#2 25047974#3 25047974#4 25047974#5 25047974#6 25047974#7 25047974#8 459492913#0 459492913#2 459492913#3 459492913#4 825786399#0 825786399#1 825786399#2 786133405 825786398#0 825786398#1 752225466#0 156966529#0"/>
  <route edges="338595769#0 157063985#0 -847086238#0 338595767 338595771#1 824116546 824116547 824116548 824116545 481971013#0 481971013#1-AddedOnRampEdge 481971013#1 481971013#5-AddedOnRampEdge 481971013#5 25292712#0"/>
  <route edges="157373209#0 157373209#2 756119203 25047032#0 25047032#1-AddedOnRampEdge 25047032#1 824116558 824116559#0 25053626#0 25053626#0-AddedOffRampEdge 25053626#1 824750037 185563494#0 185563494#1 824116554 824116555#0 824116555#2-AddedOnRampEdge"/>
  <route edges="156966517 25046707#0 25046707#1 25046707#1-AddedOffRampEdge 829639197 25044852#0-AddedOnRampEdge 25044852#0 25044852#0-AddedOffRampEdge 211040206 211040206-AddedOffRampEdge 211040188 153225687#6 153225687#8 153225687#8-AddedOffRampEdge 482384844 482384850#1-AddedOnRampEdge 482384850#1 482384850#2 847086238#0 847086238#1 847086238#2 824116552#1 824116552#2 824116553 824116557 824116556 157373201#0 157373201#0-AddedOffRampEdge 157373201#3 758274454 157373203#1 157373203#2"/>
  <route edges="30046784 156970499 156970499-AddedOffRampEdge 25044880 25044852#0-AddedOnRampEdge 25044852#0 25044852#0-AddedOffRampEdge 211040206 211040206-AddedOffRampEdge 211040188 153225687#6 153225687#8 153225687#8-AddedOffRampEdge 482384844 482384850#1-AddedOnRampEdge 482384850#1 482384850#2 338595767 338595771#1 824116546 824116547 824116548 824116545 481971013#0 481971013#1-AddedOnRampEdge 481971013#1 481971013#5-AddedOnRampEdge 481971013#5 25292712#0"/>
  <route edges="153225687#0 153225687#1 211040195 211040210#1-AddedOnRampEdge 211040210#1 210884217#4-AddedOnRampEdge 210884217#4 210884217#4-AddedOffRampEdge 25044963 829639198-AddedOnRampEdge 829639198 156970488"/>
  <route edges="210884217#0 210884217#1 210884217#2 210884217#2-AddedOffRampEdge 211040198 211040198-AddedOffRampEdge 211040193 292576585#6-AddedOnRampEdge 292576585#6"/>
  <route edges="156966532 25046707#0 25046707#1 25046707#1-AddedOffRampEdge 25046778 829639198-AddedOnRampEdge 829639198 156970488"/>
  <route edges="-76510921#1 -76510921#0 459784945#4"/>
  <route edges="749982843#0 710591527#0 710591527#1 693832672 61232392#1 61232392#3 693832673#1 -450629007 -76510933#3 -865229405 -170065299#0 -76510937#0 693832668#1 156261350#0 156261350#5 156261422#6 156261422#10 156261422#13 156261422#15"/>
  <route edges="820371000#0 820371000#3 820371000#4 820371000#8 825786432 825786433#0 825786433#2 825786433#7 820373193 820373194#0 482209831#0 482209831#2 459551208#1 820373195 820373196#0 820373198#0 825786415 825786416 481971013#0 481971013#1-AddedOnRampEdge 481971013#1 481971013#5-AddedOnRampEdge 481971013#5 25292712#0"/>
  <route edges="300813736#0 300813736#2 820345539#3 820345543 820345542#0 820345542#4 820345542#7"/>
  <route edges="749982843#0 710591527#0 710591527#1 693832672 61232392#1 61232392#3 693832673#1 -450629007 -76510933#3 -865229405 -170065299#0 76510937#1 170065517#0 170065517#2 170065517#3 170065517#5 820373194#0 482209833#0 292571830 321845932#2 321845932#3 903694548#0 903694548#1-AddedOnRampEdge 903694548#1 292576585#1 292576585#2 292576585#3 211040184 211040210#0 211040210#1-AddedOnRampEdge 211040210#1 210884217#4-AddedOnRampEdge 210884217#4 210884217#4-AddedOffRampEdge 25044963 829639198-AddedOnRampEdge 829639198 156970488"/>
  <route edges="30046784 156970499 156970499-AddedOffRampEdge 25044880 25044852#0-AddedOnRampEdge 25044852#0 25044852#0-AddedOffRampEdge 211040206 211040206-AddedOffRampEdge 211040188 153225687#6 153225687#8 153225687#8-AddedOffRampEdge 482384844 482384850#1-AddedOnRampEdge 482384850#1 482384850#2 338595767 25047974#0 25047974#1 25047974#2 25047974#3 25047974#4"/>
  <route edges="825786415 157059855 824116549#0 824116550#0 847086240 185563494#1 824116554 824116555#0 824116555#2-AddedOnRampEdge 824116555#2 824116555#2-AddedOffRampEdge 824116555#5 903694548#0 903694548#1-AddedOnRampEdge 903694548#1 292576585#1 292576585#2 292576585#3 211040184 211040210#0 211040210#1-AddedOnRampEdge 211040210#1 210884217#4-AddedOnRampEdge 210884217#4 210884217#4-AddedOffRampEdge 25046556 829639199-AddedOnRampEdge 829639199 829639199-AddedOffRampEdge 156966514"/>
  <route edges="30046784 156970499 156970499-AddedOffRampEdge 25044880 25044852#0-AddedOnRampEdge 25044852#0 25044852#0-AddedOffRampEdge 25044852#1 25044852#2-AddedOnRampEdge 25044852#2 25044852#2-AddedOffRampEdge 211040194"/>
  <route edges="30046784 156970499 156970499-AddedOffRampEdge 25044880 25044852#0-AddedOnRampEdge 25044852#0 25044852#0-AddedOffRampEdge 211040206 211040206-AddedOffRampEdge 211040188 153225687#6 153225687#8 153225687#8-AddedOffRampEdge 482384844 482384850#1-AddedOnRampEdge 482384850#1 482384850#2 847086238#0 847086238#1 847086238#2 824116552#1 824116552#2 824116553 824116557 824116556 157373201#0 157373201#0-AddedOffRampEdge 157373201#3 758274454 157373203#1 157373203#2"/>
  <route edges="30046784 156970499 156970499-AddedOffRampEdge 25044880 25044852#0-AddedOnRampEdge 25044852#0 25044852#0-AddedOffRampEdge 211040206 211040206-AddedOffRampEdge 211040188 153225687#6 153225687#8 153225687#8-AddedOffRampEdge 903694549#3 482384842#0 482384842#1-AddedOnRampEdge 482384842#1 321845933#1 321845933#5 482209830#0 300813736#0 300813736#2 820345539#3 820345543 820345542#0 820345542#4 820345542#7"/>
  <route edges="453680009#0 453680009#2 25053655#0 25053655#0-AddedOffRampEdge 825786414 821785869#0 157059859 153225678#1-AddedOnRampEdge 153225678#1 153225678#2 153225678#3 820340552#0 820340552#1 820340552#2 -836466787#4 -836466787#1 156261422#0 156261422#2 156261422#3 156261422#4 156261422#5 156261422#6 156261422#10 156261422#13 156261422#15"/>
  <route edges="903694548#1-AddedOnRampEdge 903694548#1 903694551 153225687#8 153225687#8-AddedOffRampEdge 903694549#3 482384842#0 482384842#1-AddedOnRampEdge 482384842#1 321845933#1 321845933#5 482209830#0 300813736#0 300813736#2 820345539#3 820345543 820345542#0 820345542#4 820345542#7"/>
  <route edges="820373195 820373196#0 820373198#0 825786415 825786416 481971011#0 481971011#1-AddedOnRampEdge 481971011#1 459492913#0 459492913#2 459492913#3 459492913#4 825786399#0 825786399#1 825786399#2 786133405 825786398#0 825786398#1 752225466#0 825786395#0"/>
  <route edges="749982843#0 710591527#0 710591527#1 693832672 61232392#1 61232392#3 693832673#1 -450629007 -76510933#3 -865229405 -170065299#0 76510937#1 170065517#0 170065517#2 170065517#3 170065517#5 820373194#0 482209833#0 292571830 321845932#2 321845932#3 903694548#0 903694548#1-AddedOnRampEdge 903694548#1 292576585#1 292576585#2 292576585#3 211040184 211040210#0 211040210#1-AddedOnRampEdge 211040210#1 210884217#4-AddedOnRampEdge 210884217#4 210884217#4-AddedOffRampEdge 25046556 829639199-AddedOnRampEdge 829639199 829639199-AddedOffRampEdge 156966554#1"/>
  <route edges="30046784 156970499 156970499-AddedOffRampEdge 25044880 25044852#0-AddedOnRampEdge 25044852#0 25044852#0-AddedOffRampEdge 211040206 211040206-AddedOffRampEdge 211040188 153225687#6 153225687#8 153225687#8-AddedOffRampEdge 903694549#3 482384842#0 482384842#1-AddedOnRampEdge 482384842#1 321845933#1 321845933#5 482209830#0 -453962283#3 156261350#0 156261350#5 156261422#6 156261422#10 156261422#13 156261422#15"/>
  <route edges="25053863 824116553 824116557 824116556 157373201#0 157373201#0-AddedOffRampEdge 157373199 25047032#1-AddedOnRampEdge 25047032#1 824116558 824116559#0 25053626#0 25053626#0-AddedOffRampEdge 847086239 25047974#1 25047974#2 25047974#3 25047974#4 25047974#5 25047974#6 25047974#7 25047974#8 459492917#1 825786410"/>
  <route edges="157373209#0 157373209#2 756119203 25047032#0 25047032#1-AddedOnRampEdge 25047032#1 824116558 824116559#0 25053626#0 25053626#0-AddedOffRampEdge 25053626#1 824750037 338595771#1 824116546 824116547 824116548 824116545 153225678#0 153225678#1-AddedOnRampEdge 153225678#1 153225678#2 153225678#3 820340552#0 820340552#1 820340552#2 459551209#0 459551209#3 482209830#0 300813736#0 300813736#2 820345539#3 820345543 820345542#0 820345542#4 820345542#7"/>
  <route edges="30046784 156970499 156970499-AddedOffRampEdge 25045362 25045362-AddedOffRampEdge 25046128"/>
  <route edges="820371000#0 820371000#3 820371000#4 820371000#8 825786432 825786433#0 825786433#2 825786433#7 820373193 -170065517#9 -27702346#2 156261350#0 156261350#5 -294808467#8 -294808467#6 -294808467#5 -294808467#4 -294808467#3 -294808467#2 880001329"/>
  <route edges="453680009#0 453680009#2 25053655#0 25053655#0-AddedOffRampEdge 825786414 821785869#0 157059859 153225678#1-AddedOnRampEdge 153225678#1 153225678#2 153225678#3 820340552#0 820340552#1 820340552#2 459551209#0 459551209#3 482209830#0 300813736#0 300813736#2 820345539#3 820345543 820345542#0 -156261482#20 -156261482#18 -156261482#15 -156261482#14 -156261482#13 -156261482#12 -156261482#11 -156261482#10 -156261482#8 -156261482#7 710591525#0 693832563#1"/>
  <route edges="820373194#0 482209830#0 300813736#0 300813736#2 820345539#3 820345543 820345542#0 -156261482#20 -156261482#18 -156261482#15 -156261482#14 -156261482#13 -156261482#12 -262385884#1 262385884#1"/>
  <route edges="-693832562#0 192166617#0 192166617#1 156261482#7 156261482#8 156261482#9 156261482#11 156261482#12 156261482#13 156261482#14 156261482#15 156261482#17 156261482#19 820345542#4 820371000#4 820371000#8 825786432 825786433#0 825786433#2 825786433#7 820373193 820373194#0 482209833#0 292571830 321845932#2 321845932#3 903694548#0 903694548#1-AddedOnRampEdge 903694548#1 292576585#1 292576585#2 292576585#3 292576585#5 292576585#6-AddedOnRampEdge 292576585#6"/>
  <route edges="453680009#0 453680009#2 25053655#0 25053655#0-AddedOffRampEdge 825786414 821785869#0 157059859 153225678#1-AddedOnRampEdge 153225678#1 153225678#2 153225678#3 820340552#0 820340552#1 820340552#2 459551209#0 459551209#3 482209830#0 300813736#0 300813736#2 820345539#3 820345543 820345542#0 820345542#4 820345542#7"/>
  <route edges="820371000#0 820371000#3 820371000#4 820371000#8 825786432 825786433#0 825786433#2 825786433#7 820373193 820373194#0 482209833#0 292571830 321845932#2 321845932#3 903694548#0 903694548#1-AddedOnRampEdge 903694548#1 292576585#1 292576585#2 292576585#3 211040184 211040210#0 211040210#1-AddedOnRampEdge 211040210#1 210884217#4-AddedOnRampEdge 210884217#4 210884217#4-AddedOffRampEdge 25044963 829639198-AddedOnRampEdge 829639198 156970488"/>
  <route edges="453680009#0 453680009#2 25053655#0 25053655#0-AddedOffRampEdge 825786414 821785869#0 821785867 481971011#0 481971011#1-AddedOnRampEdge 481971011#1 459492913#0"/>
  <route edges="30046784 156970499 156970499-AddedOffRampEdge 25044880 25044852#0-AddedOnRampEdge 25044852#0 25044852#0-AddedOffRampEdge 211040206 211040206-AddedOffRampEdge 211040186#1 292576585#3 292576585#5 292576585#6-AddedOnRampEdge 292576585#6"/>
  <route edges="156966517 25046707#0 25046707#1 25046707#1-AddedOffRampEdge 829639197 25044852#0-AddedOnRampEdge 25044852#0 25044852#0-AddedOffRampEdge 211040206 211040206-AddedOffRampEdge 211040188 153225687#6 153225687#8 153225687#8-AddedOffRampEdge 482384844 482384850#1-AddedOnRampEdge 482384850#1 482384850#2 338595767 25047974#0 25047974#1 25047974#2 25047974#3 25047974#4 25047974#5 25047974#6 -674869532 618739072#1 618739072#2 618739071"/>
  <route edges="157373209#0 157373209#2 756119203 25047032#0 25047032#1-AddedOnRampEdge 25047032#1 824116558 824116559#0 25053626#0 25053626#0-AddedOffRampEdge 25053626#1 824750037 185563494#0 185563494#1 824116554 824116555#0 824116555#2-AddedOnRampEdge 824116555#2 824116555#2-AddedOffRampEdge 824116555#5 903694548#0 903694548#1-AddedOnRampEdge 903694548#1 292576585#1 211040191 211040211#1-AddedOnRampEdge 211040211#1 25044852#2-AddedOnRampEdge 25044852#2 25044852#2-AddedOffRampEdge 25044852#3"/>
  <route edges="210884217#0 210884217#1 895466574 -211040189#1 -211040189#0 -211040223#0 -55814053#6 -55814053#2 -55814053#1 45033613#0 45033613#2 482384842#0 482384842#1-AddedOnRampEdge 482384842#1 321845933#1 321845933#5 482209830#0 -453962283#3 -693832668#3 76510937#0 170065299#0 865229405 76510933#3 76510933#4 76510933#5 76510933#6"/>
  <route edges="892602759 211040224#1-AddedOnRampEdge 211040224#1 210884217#1 895466574 -211040189#1 -211040189#0 -211040223#0 -55814053#6 -55814053#2 -55814053#1 45033613#0 45033613#2 482384850#0 482384850#1-AddedOnRampEdge 482384850#1 482384850#2 338595767 25047974#0 25047974#1 25047974#2 25047974#3 25047974#4 25047974#5 25047974#6 25047974#7 25047974#8 459492913#0 459492913#2 459492913#3 459492913#4 825786399#0 825786399#1 825786399#2 -295213513#3 -295213513#2 -459492909 879999460 890536672"/>
  <route edges="749982843#0 710591527#0 710591527#1 693832672 61232392#1 61232392#3 693832673#1 -450629007 -76510933#3 -865229405 -170065299#0 76510937#1 170065517#0 170065517#2 170065517#3 170065517#5 820373194#0 482209831#0 482209831#2 459551208#1 820373195 820373196#0 820373198#0 825786415 825786416 481971011#0 481971011#1-AddedOnRampEdge 481971011#1"/>
  <route edges="749982843#0 710591527#0 710591527#1 693832672 61232392#1 61232392#3 693832673#1 -450629007 -76510933#3 -865229405 -170065299#0 76510937#1 170065517#0 170065517#2 170065517#3 170065517#5 820373194#0 482209831#0 482209831#2 459551208#1 820373195 820373196#0 820373198#0 825786415 157059855 824116549#0 824116550#0 824750039#1 338595769#0 338595769#1 824116552#0 824116552#1 824116552#2 824116553 824116557 824116556 157373201#0 157373201#0-AddedOffRampEdge 157373201#3 758274454 157373203#1 157373203#2"/>
  <route edges="153225687#0 153225687#1 153225687#2 153225687#3 153225687#5 153225687#6 153225687#8 153225687#8-AddedOffRampEdge 482384844 482384850#1-AddedOnRampEdge 482384850#1 482384850#2 338595767 25047974#0 25047974#1 25047974#2 25047974#3 25047974#4 25047974#5 25047974#6 25047974#7 25047974#8 459492913#0 459492913#2 459492913#3 459492913#4 825786399#0 825786399#1 825786399#2 786133405 825786398#0 825786398#1 752225466#0 156966529#0"/>
  <route edges="-891832883#0 262385884#1 156261482#12 156261482#13 156261482#14 156261482#15 156261482#17 156261482#19 820345542#4 820371000#4 820371000#8 825786432 825786433#0 825786433#2 825786433#7 820373193 820373194#0 482209831#0 482209831#2 459551208#1 820373195 820373196#0 820373198#0 825786415 825786416 481971013#0 481971013#1-AddedOnRampEdge 481971013#1 481971013#5-AddedOnRampEdge 481971013#5 25292712#0"/>
  <route edges="157373209#0 157373209#2 756119203 25047032#0 25047032#1-AddedOnRampEdge 25047032#1 824116558 824116559#0 25053626#0 25053626#0-AddedOffRampEdge 25053626#1 824750037 185563494#0 185563494#1 824116554 824116555#0 824116555#2-AddedOnRampEdge 824116555#2 824116555#2-AddedOffRampEdge 824116555#5 903694548#0 903694548#1-AddedOnRampEdge 903694548#1 292576585#1 292576585#2 292576585#3 292576585#5 292576585#6-AddedOnRampEdge 292576585#6"/>
  <route edges="480596367 825786383#0 825786383#2 825786397#0 825786397#1 752225467 459492912#0 459492912#1 825786400 459492916#0 459492916#0-AddedOffRampEdge 824116544 185563494#0 185563494#1 824116554 824116555#0 824116555#2-AddedOnRampEdge 824116555#2 824116555#2-AddedOffRampEdge 824116555#5 903694548#0 903694548#1-AddedOnRampEdge 903694548#1 292576585#1 292576585#2 292576585#3 211040184 211040210#0 211040210#1-AddedOnRampEdge 211040210#1 210884217#4-AddedOnRampEdge 210884217#4 210884217#4-AddedOffRampEdge 25044963 829639198-AddedOnRampEdge 829639198 156970488"/>