<?xml version="1.0" encoding="UTF-8"?>

<!-- generated on 02/05/21 09:41:17 by Eclipse SUMO duarouter Version 1.6.0
<configuration xmlns:xsi="http://www.w3.org/2001/XMLSchema-instance" xsi:noNamespaceSchemaLocation="http://sumo.dlr.de/xsd/duarouterConfiguration.xsd">

    <input>
        <net-file value="osm_netconvert.net.xml"/>
        <route-files value="osm.passenger.trips.xml"/>
    </input>

    <output>
        <output-file value="routes.rou.xml"/>
        <alternatives-output value="routes.rou.alt.xml"/>
    </output>

    <time>
        <begin value="0"/>
        <end value="3600.0"/>
    </time>

    <report>
        <no-warnings value="true"/>
        <ignore-errors value="true"/>
        <no-step-log value="true"/>
    </report>

</configuration>
-->

<routes xmlns:xsi="http://www.w3.org/2001/XMLSchema-instance" xsi:noNamespaceSchemaLocation="http://sumo.dlr.de/xsd/routes_file.xsd">
    <vType id="veh_passenger" vClass="passenger"/>
    <vehicle id="veh1" type="veh_passenger" depart="1.49" departLane="best" departSpeed="max">
        <route edges="157373209#0 157373209#2 756119203 25047032#0 25047032#1-AddedOnRampEdge 25047032#1 824116558 824116559#0 25053626#0 25053626#0-AddedOffRampEdge 25053626#1 824750037 185563494#0 185563494#1 824116554 824116555#0 824116555#2-AddedOnRampEdge 824116555#2 824116555#2-AddedOffRampEdge 824116555#5 903694548#0 903694548#1-AddedOnRampEdge 903694548#1 292576585#1 292576585#2 292576585#3 211040184 211040210#0 211040210#1-AddedOnRampEdge 211040210#1 210884217#4-AddedOnRampEdge 210884217#4 210884217#4-AddedOffRampEdge 25044963 829639198-AddedOnRampEdge 829639198 156970488"/>
    </vehicle>
    <vehicle id="veh3" type="veh_passenger" depart="4.46" departLane="best" departSpeed="max">
        <route edges="820371000#0 820371000#3 820371000#4 820371000#8 825786432 825786433#0 825786433#2 825786433#7 820373193 820373194#0 482209833#0 292571830 321845932#2 321845932#3 903694548#0 903694548#1-AddedOnRampEdge 903694548#1 292576585#1 292576585#2 292576585#3 211040184 211040210#0 211040210#1-AddedOnRampEdge 211040210#1 210884217#4-AddedOnRampEdge 210884217#4 210884217#4-AddedOffRampEdge 25046556 829639199-AddedOnRampEdge 829639199 829639199-AddedOffRampEdge 156966514"/>
    </vehicle>
    <vehicle id="veh4" type="veh_passenger" depart="5.94" departLane="best" departSpeed="max">
        <route edges="30046784 156970499 156970499-AddedOffRampEdge 25044880 25044852#0-AddedOnRampEdge 25044852#0 25044852#0-AddedOffRampEdge 211040206 211040206-AddedOffRampEdge 211040188 153225687#6 153225687#8 153225687#8-AddedOffRampEdge 903694549#3 482384842#0 482384842#1-AddedOnRampEdge 482384842#1 321845933#1 321845933#5 482209830#0 -453962283#3 -693832668#3 76510937#0 170065299#0 865229405 76510933#3 76510933#4 76510933#5 76510933#6 76510933#7 76510933#8 -76510933#8"/>
    </vehicle>
    <vehicle id="veh5" type="veh_passenger" depart="7.43" departLane="best" departSpeed="max">
        <route edges="156966532 25046707#0 25046707#1 25046707#1-AddedOffRampEdge 829639197 25044852#0-AddedOnRampEdge 25044852#0 25044852#0-AddedOffRampEdge 211040206 211040206-AddedOffRampEdge 211040188 153225687#6 153225687#8 153225687#8-AddedOffRampEdge 482384844 482384850#1-AddedOnRampEdge 482384850#1 482384850#2 338595767 338595771#1 824116546 824116547 824116548 824116545 481971013#0 481971013#1-AddedOnRampEdge 481971013#1 481971013#5-AddedOnRampEdge 481971013#5 25292712#0"/>
    </vehicle>
    <vehicle id="veh6" type="veh_passenger" depart="8.92" departLane="best" departSpeed="max">
        <route edges="-156261422#15 -156261422#14 -156261422#12 -156261422#9 -156261422#5 -156261422#4 -156261422#3 -156261422#2 -156261422#1 836466787#0 836466787#2 459551209#0 459551209#3 482209833#0 292571830 321845932#2 321845932#3 903694548#0 903694548#1-AddedOnRampEdge 903694548#1 292576585#1 292576585#2 292576585#3 211040184 211040210#0 211040210#1-AddedOnRampEdge 211040210#1 210884217#4-AddedOnRampEdge 210884217#4 210884217#4-AddedOffRampEdge 25044963 829639198-AddedOnRampEdge 829639198 156970488"/>
    </vehicle>
    <vehicle id="veh8" type="veh_passenger" depart="11.89" departLane="best" departSpeed="max">
        <route edges="156966532 25046707#0 25046707#1 25046707#1-AddedOffRampEdge 829639197 25044852#0-AddedOnRampEdge 25044852#0 25044852#0-AddedOffRampEdge 211040206 211040206-AddedOffRampEdge 211040186#1 292576585#3 292576585#5 292576585#6-AddedOnRampEdge 292576585#6"/>
    </vehicle>
    <vehicle id="veh9" type="veh_passenger" depart="13.37" departLane="best" departSpeed="max">
        <route edges="749982843#0 710591527#0 156261482#0 156261482#2 156261482#3 156261482#5 156261482#7 156261504#0 156261504#1 156261504#2 156261504#3 -61232378#1 156261483#3 192166622#1 -192166622#1"/>
    </vehicle>
    <vehicle id="veh10" type="veh_passenger" depart="14.86" departLane="best" departSpeed="max">
        <route edges="210884217#0 210884217#1 210884217#2 210884217#2-AddedOffRampEdge 210884217#3 210884217#4-AddedOnRampEdge 210884217#4 210884217#4-AddedOffRampEdge 25046556 829639199-AddedOnRampEdge 829639199 829639199-AddedOffRampEdge 156966554#1"/>
    </vehicle>
    <vehicle id="veh11" type="veh_passenger" depart="16.34" departLane="best" departSpeed="max">
        <route edges="820371000#0 820371000#3 820371000#4 820371000#8 825786432 825786433#0 825786433#2 825786433#7 820373193 820373194#0 482209833#0 292571830 321845932#2 321845932#3 903694548#0 903694548#1-AddedOnRampEdge 903694548#1 292576585#1 211040191 211040211#1-AddedOnRampEdge 211040211#1 25044852#2-AddedOnRampEdge 25044852#2 25044852#2-AddedOffRampEdge 211040194"/>
    </vehicle>
    <vehicle id="veh12" type="veh_passenger" depart="17.83" departLane="best">
        <route edges="-76510933#5 -76510933#4 -76510933#3 -865229405 -170065299#0 76510937#1 170065517#0 170065517#2 170065517#3 170065517#5 820373194#0 482209833#0 292571830 321845932#2 321845932#3 903694548#0 903694548#1-AddedOnRampEdge 903694548#1 292576585#1 292576585#2 292576585#3 211040184 211040210#0 211040210#1-AddedOnRampEdge 211040210#1 210884217#4-AddedOnRampEdge 210884217#4 210884217#4-AddedOffRampEdge 25046556 829639199-AddedOnRampEdge 829639199 829639199-AddedOffRampEdge 156966514"/>
    </vehicle>
    <vehicle id="veh13" type="veh_passenger" depart="19.32" departLane="best" departSpeed="max">
        <route edges="749982843#0 710591527#0 710591527#1 693832672 61232392#1 61232392#3 693832673#1 -450629007 -76510933#3 -865229405 -170065299#0 76510937#1 170065517#0 170065517#2 170065517#3 170065517#5 820373194#0 482209833#0 292571830 321845932#2 321845932#3 903694548#0 903694548#1-AddedOnRampEdge 903694548#1 292576585#1 292576585#2 292576585#3 292576585#5 292576585#6-AddedOnRampEdge 292576585#6"/>
    </vehicle>
    <vehicle id="veh15" type="veh_passenger" depart="22.29" departLane="best" departSpeed="max">
        <route edges="453680009#0 453680009#2 25053655#0 25053655#0-AddedOffRampEdge 825786414 821785869#0 821785867 481971011#0 481971011#1-AddedOnRampEdge 481971011#1 459492913#0 459492913#2 459492913#3 459492913#4 825786399#0 825786399#1 825786399#2 786133405 825786398#0 825786398#1 752225466#0 825786395#0"/>
    </vehicle>
    <vehicle id="veh16" type="veh_passenger" depart="23.77" departLane="best">
        <route edges="25053655#0 25053655#0-AddedOffRampEdge 178872925 481971013#5-AddedOnRampEdge 481971013#5 25292712#0"/>
    </vehicle>
    <vehicle id="veh17" type="veh_passenger" depart="25.26" departLane="best" departSpeed="max">
        <route edges="749982843#0 710591527#0 710591527#1 693832672 61232392#1 61232392#3 693832673#1 -450629007 -76510933#3 -865229405 -170065299#0 76510937#1 170065517#0 170065517#2 170065517#3 170065517#5 820373194#0 482209831#0 482209831#2 459551208#1 820373195 820373196#0 820373198#0 825786415 825786416 481971011#0 481971011#1-AddedOnRampEdge 481971011#1 459492913#0 459492913#2 459492913#3 459492913#4 825786399#0 825786399#1 825786399#2 459492912#0"/>
    </vehicle>
    <vehicle id="veh18" type="veh_passenger" depart="26.75" departLane="best" departSpeed="max">
        <route edges="749982843#0 710591527#0 710591527#1 693832672 61232392#1 61232392#3 693832673#1 -450629007 -76510933#3 -865229405 -170065299#0 76510937#1 170065517#0 170065517#2 170065517#3 170065517#5 820373194#0 482209831#0 482209831#2 459551208#1 820373195 820373196#0 820373198#0 825786415 825786416 481971013#0 481971013#1-AddedOnRampEdge 481971013#1 481971013#5-AddedOnRampEdge 481971013#5 25292712#0"/>
    </vehicle>
    <vehicle id="veh19" type="veh_passenger" depart="28.23" departLane="best" departSpeed="max">
        <route edges="480596367 825786383#0 825786383#2 825786397#0 825786397#1 752225467 459492912#0 459492912#1 825786400 459492917#1 825786410 153225678#0 153225678#1-AddedOnRampEdge 153225678#1 153225678#2 153225678#3 820340552#0 820340552#1 820340552#2 -836466787#4 -836466787#1 -328942767#18 156261350#5"/>
    </vehicle>
    <vehicle id="veh20" type="veh_passenger" depart="29.72" departLane="best" departSpeed="max">
        <route edges="156966532 25046707#0 25046707#1 25046707#1-AddedOffRampEdge 829639197 25044852#0-AddedOnRampEdge 25044852#0 25044852#0-AddedOffRampEdge 211040206 211040206-AddedOffRampEdge 211040188 153225687#6 153225687#8 153225687#8-AddedOffRampEdge 482384844 482384850#1-AddedOnRampEdge 482384850#1 482384850#2 847086238#0 847086238#1 847086238#2 824116552#1 824116552#2 824116553 824116557 824116556 157373201#0 157373201#0-AddedOffRampEdge 157373201#3 758274454 157373203#1 157373203#2"/>
    </vehicle>
    <vehicle id="veh22" type="veh_passenger" depart="32.69" departLane="best">
        <route edges="-865196560#0 865196560#0 -809900342#1 -809900342#0 25047974#6 25047974#7 25047974#8 459492916#0 459492916#0-AddedOffRampEdge 824116544 338595769#0 338595769#1 824116552#0 824116552#1 824116552#2 824116553 824116557 824116556 157373201#0 157373201#0-AddedOffRampEdge 157373201#3 758274454 157373203#1 157373203#2"/>
    </vehicle>
    <vehicle id="veh25" type="veh_passenger" depart="37.15" departLane="best" departSpeed="max">
        <route edges="157373209#0 157373209#2 756119203 25047032#0 25047032#1-AddedOnRampEdge 25047032#1 824116558 824116559#0 25053626#0 25053626#0-AddedOffRampEdge 847086239 25047974#1 25047974#2 25047974#3 25047974#4 25047974#5 25047974#6 25047974#7 25047974#8 459492913#0 459492913#2 459492913#3 459492913#4 825786399#0 825786399#1 825786399#2 786133405 825786398#0 825786398#1 752225466#0 825786395#0"/>
    </vehicle>
    <vehicle id="veh28" type="veh_passenger" depart="41.60" departLane="best" departSpeed="max">
        <route edges="156966517 25046707#0 25046707#1 25046707#1-AddedOffRampEdge 829639197 25044852#0-AddedOnRampEdge 25044852#0 25044852#0-AddedOffRampEdge 25044852#1 25044852#2-AddedOnRampEdge 25044852#2 25044852#2-AddedOffRampEdge 25044852#3"/>
    </vehicle>
    <vehicle id="veh31" type="veh_passenger" depart="46.06" departLane="best" departSpeed="max">
        <route edges="749982843#0 710591527#0 710591527#1 693832672 61232392#1 61232392#3 693832673#1 -450629007 -76510933#3 -865229405 -170065299#0 76510937#1 170065517#0 170065517#2 170065517#3 170065517#5 820373194#0 482209831#0 482209831#2 459551208#1 820373195 820373196#0 820373198#0 825786415 157059855 824116549#0 824116550#0 824750039#1 25047974#0 25047974#1 25047974#2 25047974#3 25047974#4 25047974#5 809900342#0 809900343"/>
    </vehicle>
    <vehicle id="veh32" type="veh_passenger" depart="47.55" departLane="best" departSpeed="max">
        <route edges="156966532 25046707#0 25046707#1 25046707#1-AddedOffRampEdge 829639197 25044852#0-AddedOnRampEdge 25044852#0 25044852#0-AddedOffRampEdge 211040206 211040206-AddedOffRampEdge 211040188 153225687#6 153225687#8 153225687#8-AddedOffRampEdge 482384844 482384850#1-AddedOnRampEdge 482384850#1 482384850#2 847086238#0 847086238#1 847086238#2 824116552#1 824116552#2 824116553 824116557 -783785001#7 -783785001#6 783785576 -783785575#0"/>
    </vehicle>
    <vehicle id="veh33" type="veh_passenger" depart="49.03" departLane="best" departSpeed="max">
        <route edges="210884217#0 210884217#1 895466574 -211040189#1 -211040189#0 -211040223#0 -55814053#6 -55814053#2 -55814053#1 45033613#0 45033613#2 482384850#0 482384850#1-AddedOnRampEdge 482384850#1 482384850#2 847086238#0 847086238#1 847086238#2 824116552#1 824116552#2 824116553 824116557 824116556 157373201#0 157373201#0-AddedOffRampEdge 157373201#3 758274454 157373203#1 157373203#2"/>
    </vehicle>
    <vehicle id="veh34" type="veh_passenger" depart="50.52" departLane="best">
        <route edges="820340552#2 459551209#0 459551209#3 482209831#0 482209831#2 459551208#1 820373195 820373196#0 820373198#0 825786415 157059855 824116549#0 824116550#0 824750039#1 338595769#0 338595769#1 824116552#0 824116552#1 824116552#2 824116553 824116557 824116556 157373201#0 157373201#0-AddedOffRampEdge 157373201#3 758274454 157373203#1 157373203#2"/>
    </vehicle>
    <vehicle id="veh37" type="veh_passenger" depart="54.98" departLane="best" departSpeed="max">
        <route edges="157373209#0 157373209#2 756119203 25047032#0 25047032#1-AddedOnRampEdge 25047032#1 824116558 824116559#0 25053626#0 25053626#0-AddedOffRampEdge 25053626#1 824750037 185563494#0 185563494#1 824116554 824116555#0 824116555#2-AddedOnRampEdge 824116555#2 824116555#2-AddedOffRampEdge 824116555#5 903694548#0 903694548#1-AddedOnRampEdge 903694548#1 292576585#1 292576585#2 292576585#3 211040184 211040210#0 211040210#1-AddedOnRampEdge 211040210#1 210884217#4-AddedOnRampEdge 210884217#4 210884217#4-AddedOffRampEdge 25044963 829639198-AddedOnRampEdge 829639198 156970488"/>
    </vehicle>
    <vehicle id="veh38" type="veh_passenger" depart="56.46" departLane="best" departSpeed="max">
        <route edges="453680009#0 453680009#2 25053655#0 25053655#0-AddedOffRampEdge 825786414 821785869#0 821785867 9168676 824116549#0 824116550#0 847086240 185563494#1 824116554 824116555#0 824116555#2-AddedOnRampEdge 824116555#2 824116555#2-AddedOffRampEdge 824116555#5 903694548#0 903694548#1-AddedOnRampEdge 903694548#1 292576585#1 292576585#2 292576585#3 211040184 211040210#0 211040210#1-AddedOnRampEdge 211040210#1 210884217#4-AddedOnRampEdge 210884217#4 210884217#4-AddedOffRampEdge 25044963 829639198-AddedOnRampEdge 829639198 156970488"/>
    </vehicle>
    <vehicle id="veh39" type="veh_passenger" depart="57.95" departLane="best" departSpeed="max">
        <route edges="453680009#0 453680009#2 25053655#0 25053655#0-AddedOffRampEdge 825786414 821785869#0 821785867 481971011#0 481971011#1-AddedOnRampEdge 481971011#1 459492913#0 459492913#2 459492913#3 459492913#4 825786399#0 825786399#1 825786399#2 786133405 825786398#0 825786398#1 752225466#0 825786395#0"/>
    </vehicle>
    <vehicle id="veh40" type="veh_passenger" depart="59.43" departLane="best">
        <route edges="891759499#1 891759498 -891759499#0 -192166621#2 -192166621#1 -192166621#0 459351086#0 459351086#1 820371000#4 820371000#8 825786432 825786433#0 825786433#2 825786433#7 820373193 820373194#0 482209831#0 482209831#2 459551208#1 820373195 820373196#0 820373198#0 825786415 825786416 481971013#0 481971013#1-AddedOnRampEdge 481971013#1 481971013#5-AddedOnRampEdge 481971013#5 25292712#0"/>
    </vehicle>
    <vehicle id="veh46" type="veh_passenger" depart="68.35" departLane="best">
        <route edges="824116544 338595771#1 824116546 824116547 824116548 824116545 153225678#0 153225678#1-AddedOnRampEdge 153225678#1 153225678#2 153225678#3 820340552#0 820340552#1 820340552#2 459551209#0 459551209#3 482209830#0 300813736#0 300813736#2 820345539#3 820345543 820345542#0 820345542#4 820345542#7"/>
    </vehicle>
    <vehicle id="veh47" type="veh_passenger" depart="69.83" departLane="best" departSpeed="max">
        <route edges="-156261422#15 -156261422#14 -156261422#12 -156261422#9 -156261422#5 -156261422#4 -156261422#3 -156261422#2 -156261422#1 836466787#0 836466787#2 459551209#0 459551209#3 482209830#0 300813736#0 300813736#2 820345539#3 820345543 820345542#0 -156261482#20 -156261482#18 -156261482#15 -156261482#14 -156261482#13 -156261482#12 -156261482#11 -156261482#10 -156261482#8 -156261482#7 710591525#0"/>
    </vehicle>
    <vehicle id="veh51" type="veh_passenger" depart="75.78" departLane="best" departSpeed="max">
        <route edges="30046784 156970499 156970499-AddedOffRampEdge 25044880 25044852#0-AddedOnRampEdge 25044852#0 25044852#0-AddedOffRampEdge 211040206 211040206-AddedOffRampEdge 211040188 153225687#6 153225687#8 153225687#8-AddedOffRampEdge 482384844 482384850#1-AddedOnRampEdge 482384850#1 482384850#2 338595767 25047974#0 25047974#1 25047974#2 25047974#3 25047974#4 25047974#5 25047974#6 25047974#7 25047974#8 459492913#0 459492913#2 459492913#3 459492913#4 825786399#0 825786399#1 825786399#2 786133405 825786398#0 825786398#1 752225466#0 825786395#0"/>
    </vehicle>
    <vehicle id="veh53" type="veh_passenger" depart="78.75" departLane="best" departSpeed="max">
        <route edges="453680009#0 453680009#2 25053655#0 25053655#0-AddedOffRampEdge 825786414 821785869#0 821785867 9168676 824116549#0 824116550#0 847086240 185563494#1 824116554 824116555#0 824116555#2-AddedOnRampEdge 824116555#2 824116555#2-AddedOffRampEdge 824116555#5 903694548#0 903694548#1-AddedOnRampEdge 903694548#1 292576585#1 292576585#2 292576585#3 211040184 211040210#0 211040210#1-AddedOnRampEdge 211040210#1 210884217#4-AddedOnRampEdge 210884217#4 210884217#4-AddedOffRampEdge 25046556 829639199-AddedOnRampEdge 829639199 829639199-AddedOffRampEdge 156966554#1"/>
    </vehicle>
    <vehicle id="veh54" type="veh_passenger" depart="80.24" departLane="best" departSpeed="max">
        <route edges="820371000#0 820371000#3 820371000#4 820371000#8 825786432 825786433#0 825786433#2 825786433#7 820373193 820373194#0 482209831#0 482209831#2 459551208#1 820373195 820373196#0 820373198#0 825786415 157059855 824116549#0 824116550#0 824750039#1 338595769#0 338595769#1 824116552#0 824116552#1 824116552#2"/>
    </vehicle>
    <vehicle id="veh57" type="veh_passenger" depart="84.69" departLane="best">
        <route edges="482384842#1-AddedOnRampEdge 482384842#1 25053183#1 820373196#0 820373198#0 825786415 825786416 481971013#0 481971013#1-AddedOnRampEdge 481971013#1 481971013#5-AddedOnRampEdge 481971013#5 25292712#0"/>
    </vehicle>
    <vehicle id="veh58" type="veh_passenger" depart="86.18" departLane="best">
        <route edges="710591530#1 -710591530#1 -710591530#0 -25053099#3 -25053099#2 693832669#1 693832668#1 453962283#0 300813736#0 820373194#0 482209831#0 482209831#2 459551208#1 820373195 820373196#0 820373198#0 825786415 825786416 481971013#0 481971013#1-AddedOnRampEdge 481971013#1 481971013#5-AddedOnRampEdge 481971013#5 25292712#0"/>
    </vehicle>
    <vehicle id="veh60" type="veh_passenger" depart="89.15" departLane="best" departSpeed="max">
        <route edges="-156261422#15 -156261422#14 -156261422#12 -156261422#9 -156261422#5 -156261422#4 -156261422#3 -156261422#2 -156261422#1 836466787#0 836466787#2 459551209#0 459551209#3 482209831#0 482209831#2 459551208#1 820373195 820373196#0 820373198#0 825786415 825786416 481971011#0 481971011#1-AddedOnRampEdge 481971011#1 459492913#0 459492913#2 459492913#3 459492913#4 825786399#0 825786399#1 825786399#2 786133405 825786398#0 825786398#1 752225466#0 825786395#0"/>
    </vehicle>
    <vehicle id="veh61" type="veh_passenger" depart="90.64" departLane="best" departSpeed="max">
        <route edges="820371000#0 820371000#3 820345542#7"/>
    </vehicle>
    <vehicle id="veh62" type="veh_passenger" depart="92.12" departLane="best" departSpeed="max">
        <route edges="210884217#0 210884217#1 895466574 -211040189#1 -211040189#0 -211040223#0 -55814053#6 -55814053#2 -55814053#1 45033613#0 45033613#2 482384842#0 482384842#1-AddedOnRampEdge 482384842#1 321845933#1 321845933#5 482209830#0 -453962283#3 156261350#0 156261350#5 156261422#6 156261422#10 156261422#13 156261422#15"/>
    </vehicle>
    <vehicle id="veh63" type="veh_passenger" depart="93.61" departLane="best" departSpeed="max">
        <route edges="820371000#0 820371000#3 820371000#4 820371000#8 825786432 825786433#0 825786433#2 825786433#7 820373193 820373194#0 482209831#0 482209831#2 459551208#1 820373195 820373196#0 820373198#0 825786415 825786416 481971011#0 481971011#1-AddedOnRampEdge 481971011#1 459492913#0 459492913#2 459492913#3 459492913#4 825786399#0 825786399#1 825786399#2 786133405 825786398#0 825786398#1 752225466#0 825786395#0"/>
    </vehicle>
    <vehicle id="veh66" type="veh_passenger" depart="98.07" departLane="best">
        <route edges="552779154#0 552779154#1 552779154#3 552779154#4 552779154#6 157063979 824116551#0 824116551#1 -847086238#1 -847086238#0 338595767 25047974#0 25047974#1 25047974#2 25047974#3 25047974#4 25047974#5 25047974#6 25047974#7 25047974#8 459492913#0 459492913#2 459492913#3 459492913#4 825786399#0 825786399#1 825786399#2 786133405 825786398#0 825786398#1 752225466#0 156966529#0"/>
    </vehicle>
    <vehicle id="veh67" type="veh_passenger" depart="99.55" departLane="best">
        <route edges="338595769#0 157063985#0 -847086238#0 338595767 338595771#1 824116546 824116547 824116548 824116545 481971013#0 481971013#1-AddedOnRampEdge 481971013#1 481971013#5-AddedOnRampEdge 481971013#5 25292712#0"/>
    </vehicle>
    <vehicle id="veh68" type="veh_passenger" depart="101.04" departLane="best" departSpeed="max">
        <route edges="157373209#0 157373209#2 756119203 25047032#0 25047032#1-AddedOnRampEdge 25047032#1 824116558 824116559#0 25053626#0 25053626#0-AddedOffRampEdge 25053626#1 824750037 185563494#0 185563494#1 824116554 824116555#0 824116555#2-AddedOnRampEdge"/>
    </vehicle>
    <vehicle id="veh70" type="veh_passenger" depart="104.01" departLane="best" departSpeed="max">
        <route edges="156966517 25046707#0 25046707#1 25046707#1-AddedOffRampEdge 829639197 25044852#0-AddedOnRampEdge 25044852#0 25044852#0-AddedOffRampEdge 211040206 211040206-AddedOffRampEdge 211040188 153225687#6 153225687#8 153225687#8-AddedOffRampEdge 482384844 482384850#1-AddedOnRampEdge 482384850#1 482384850#2 847086238#0 847086238#1 847086238#2 824116552#1 824116552#2 824116553 824116557 824116556 157373201#0 157373201#0-AddedOffRampEdge 157373201#3 758274454 157373203#1 157373203#2"/>
    </vehicle>
    <vehicle id="veh72" type="veh_passenger" depart="106.98" departLane="best" departSpeed="max">
        <route edges="30046784 156970499 156970499-AddedOffRampEdge 25044880 25044852#0-AddedOnRampEdge 25044852#0 25044852#0-AddedOffRampEdge 211040206 211040206-AddedOffRampEdge 211040188 153225687#6 153225687#8 153225687#8-AddedOffRampEdge 482384844 482384850#1-AddedOnRampEdge 482384850#1 482384850#2 338595767 338595771#1 824116546 824116547 824116548 824116545 481971013#0 481971013#1-AddedOnRampEdge 481971013#1 481971013#5-AddedOnRampEdge 481971013#5 25292712#0"/>
    </vehicle>
    <vehicle id="veh73" type="veh_passenger" depart="108.47" departLane="best" departSpeed="max">
        <route edges="153225687#0 153225687#1 211040195 211040210#1-AddedOnRampEdge 211040210#1 210884217#4-AddedOnRampEdge 210884217#4 210884217#4-AddedOffRampEdge 25044963 829639198-AddedOnRampEdge 829639198 156970488"/>
    </vehicle>
    <vehicle id="veh74" type="veh_passenger" depart="109.95" departLane="best" departSpeed="max">
        <route edges="210884217#0 210884217#1 210884217#2 210884217#2-AddedOffRampEdge 211040198 211040198-AddedOffRampEdge 211040193 292576585#6-AddedOnRampEdge 292576585#6"/>
    </vehicle>
    <vehicle id="veh75" type="veh_passenger" depart="111.44" departLane="best" departSpeed="max">
        <route edges="156966532 25046707#0 25046707#1 25046707#1-AddedOffRampEdge 25046778 829639198-AddedOnRampEdge 829639198 156970488"/>
    </vehicle>
    <vehicle id="veh76" type="veh_passenger" depart="112.92" departLane="best" departSpeed="max">
        <route edges="-76510921#1 -76510921#0 459784945#4"/>
    </vehicle>
    <vehicle id="veh77" type="veh_passenger" depart="114.41" departLane="best" departSpeed="max">
        <route edges="749982843#0 710591527#0 710591527#1 693832672 61232392#1 61232392#3 693832673#1 -450629007 -76510933#3 -865229405 -170065299#0 -76510937#0 693832668#1 156261350#0 156261350#5 156261422#6 156261422#10 156261422#13 156261422#15"/>
    </vehicle>
    <vehicle id="veh79" type="veh_passenger" depart="117.38" departLane="best" departSpeed="max">
        <route edges="820371000#0 820371000#3 820371000#4 820371000#8 825786432 825786433#0 825786433#2 825786433#7 820373193 820373194#0 482209831#0 482209831#2 459551208#1 820373195 820373196#0 820373198#0 825786415 825786416 481971013#0 481971013#1-AddedOnRampEdge 481971013#1 481971013#5-AddedOnRampEdge 481971013#5 25292712#0"/>
    </vehicle>
    <vehicle id="veh80" type="veh_passenger" depart="118.87" departLane="best">
        <route edges="300813736#0 300813736#2 820345539#3 820345543 820345542#0 820345542#4 820345542#7"/>
    </vehicle>
    <vehicle id="veh81" type="veh_passenger" depart="120.35" departLane="best" departSpeed="max">
        <route edges="749982843#0 710591527#0 710591527#1 693832672 61232392#1 61232392#3 693832673#1 -450629007 -76510933#3 -865229405 -170065299#0 76510937#1 170065517#0 170065517#2 170065517#3 170065517#5 820373194#0 482209833#0 292571830 321845932#2 321845932#3 903694548#0 903694548#1-AddedOnRampEdge 903694548#1 292576585#1 292576585#2 292576585#3 211040184 211040210#0 211040210#1-AddedOnRampEdge 211040210#1 210884217#4-AddedOnRampEdge 210884217#4 210884217#4-AddedOffRampEdge 25044963 829639198-AddedOnRampEdge 829639198 156970488"/>
    </vehicle>
    <vehicle id="veh83" type="veh_passenger" depart="123.33" departLane="best" departSpeed="max">
        <route edges="30046784 156970499 156970499-AddedOffRampEdge 25044880 25044852#0-AddedOnRampEdge 25044852#0 25044852#0-AddedOffRampEdge 211040206 211040206-AddedOffRampEdge 211040188 153225687#6 153225687#8 153225687#8-AddedOffRampEdge 482384844 482384850#1-AddedOnRampEdge 482384850#1 482384850#2 338595767 25047974#0 25047974#1 25047974#2 25047974#3 25047974#4"/>
    </vehicle>
    <vehicle id="veh85" type="veh_passenger" depart="126.30" departLane="best">
        <route edges="825786415 157059855 824116549#0 824116550#0 847086240 185563494#1 824116554 824116555#0 824116555#2-AddedOnRampEdge 824116555#2 824116555#2-AddedOffRampEdge 824116555#5 903694548#0 903694548#1-AddedOnRampEdge 903694548#1 292576585#1 292576585#2 292576585#3 211040184 211040210#0 211040210#1-AddedOnRampEdge 211040210#1 210884217#4-AddedOnRampEdge 210884217#4 210884217#4-AddedOffRampEdge 25046556 829639199-AddedOnRampEdge 829639199 829639199-AddedOffRampEdge 156966514"/>
    </vehicle>
    <vehicle id="veh86" type="veh_passenger" depart="127.78" departLane="best" departSpeed="max">
        <route edges="30046784 156970499 156970499-AddedOffRampEdge 25044880 25044852#0-AddedOnRampEdge 25044852#0 25044852#0-AddedOffRampEdge 25044852#1 25044852#2-AddedOnRampEdge 25044852#2 25044852#2-AddedOffRampEdge 211040194"/>
    </vehicle>
    <vehicle id="veh87" type="veh_passenger" depart="129.27" departLane="best" departSpeed="max">
        <route edges="749982843#0 710591527#0 710591527#1 693832672 61232392#1 61232392#3 693832673#1 -450629007 -76510933#3 -865229405 -170065299#0 76510937#1 170065517#0 170065517#2 170065517#3 170065517#5 820373194#0 482209833#0 292571830 321845932#2 321845932#3 903694548#0 903694548#1-AddedOnRampEdge 903694548#1 292576585#1 292576585#2 292576585#3 211040184 211040210#0 211040210#1-AddedOnRampEdge 211040210#1 210884217#4-AddedOnRampEdge 210884217#4 210884217#4-AddedOffRampEdge 25044963 829639198-AddedOnRampEdge 829639198 156970488"/>
    </vehicle>
    <vehicle id="veh89" type="veh_passenger" depart="132.24" departLane="best" departSpeed="max">
        <route edges="30046784 156970499 156970499-AddedOffRampEdge 25044880 25044852#0-AddedOnRampEdge 25044852#0 25044852#0-AddedOffRampEdge 211040206 211040206-AddedOffRampEdge 211040188 153225687#6 153225687#8 153225687#8-AddedOffRampEdge 482384844 482384850#1-AddedOnRampEdge 482384850#1 482384850#2 847086238#0 847086238#1 847086238#2 824116552#1 824116552#2 824116553 824116557 824116556 157373201#0 157373201#0-AddedOffRampEdge 157373201#3 758274454 157373203#1 157373203#2"/>
    </vehicle>
    <vehicle id="veh90" type="veh_passenger" depart="133.73" departLane="best" departSpeed="max">
        <route edges="157373209#0 157373209#2 756119203 25047032#0 25047032#1-AddedOnRampEdge 25047032#1 824116558 824116559#0 25053626#0 25053626#0-AddedOffRampEdge 847086239 25047974#1 25047974#2 25047974#3 25047974#4 25047974#5 25047974#6 25047974#7 25047974#8 459492913#0 459492913#2 459492913#3 459492913#4 825786399#0 825786399#1 825786399#2 786133405 825786398#0 825786398#1 752225466#0 825786395#0"/>
    </vehicle>
    <vehicle id="veh91" type="veh_passenger" depart="135.21" departLane="best" departSpeed="max">
        <route edges="30046784 156970499 156970499-AddedOffRampEdge 25044880 25044852#0-AddedOnRampEdge 25044852#0 25044852#0-AddedOffRampEdge 211040206 211040206-AddedOffRampEdge 211040188 153225687#6 153225687#8 153225687#8-AddedOffRampEdge 903694549#3 482384842#0 482384842#1-AddedOnRampEdge 482384842#1 321845933#1 321845933#5 482209830#0 300813736#0 300813736#2 820345539#3 820345543 820345542#0 820345542#4 820345542#7"/>
    </vehicle>
    <vehicle id="veh92" type="veh_passenger" depart="136.70" departLane="best" departSpeed="max">
        <route edges="453680009#0 453680009#2 25053655#0 25053655#0-AddedOffRampEdge 825786414 821785869#0 157059859 153225678#1-AddedOnRampEdge 153225678#1 153225678#2 153225678#3 820340552#0 820340552#1 820340552#2 -836466787#4 -836466787#1 156261422#0 156261422#2 156261422#3 156261422#4 156261422#5 156261422#6 156261422#10 156261422#13 156261422#15"/>
    </vehicle>